/*---------------------------------------------------------------------------*\
  =========                 |
  \\      /  F ield         | OpenFOAM: The Open Source CFD Toolbox
   \\    /   O peration     | Website:  https://openfoam.org
    \\  /    A nd           | Version:  6
     \\/     M anipulation  |
\*---------------------------------------------------------------------------*/
Build  : 6
Exec   : bouSimpleFoam -parallel
Date   : Aug 08 2020
Time   : 23:00:32
Host   : "emps-ugcs2"
PID    : 5212
I/O    : uncollated
Case   : /home/links/jjw230/Second_Extra/Case16
nProcs : 4
Slaves : 
3
(
"emps-ugcs2.5213"
"emps-ugcs2.5214"
"emps-ugcs2.5215"
)

Pstream initialized with:
    floatTransfer      : 0
    nProcsSimpleSum    : 0
    commsType          : nonBlocking
    polling iterations : 0
sigFpe : Enabling floating point exception trapping (FOAM_SIGFPE).
fileModificationChecking : Monitoring run-time modified files using timeStampMaster (fileModificationSkew 10)
allowSystemOperations : Allowing user-supplied system call operations

// * * * * * * * * * * * * * * * * * * * * * * * * * * * * * * * * * * * * * //
Create time

Create mesh for time = 0


SIMPLE: Convergence criteria found
        p: tolerance 0.001
        U: tolerance 0.001
        "(k|epsilon)": tolerance 0.001
        theta: tolerance 0.001

Reading field p

Reading field U

Reading field theta

Reading/calculating face flux field phi

Selecting incompressible transport model Newtonian
Selecting turbulence model type RAS
Selecting RAS turbulence model RNGkEpsilon
RAS
{
    RASModel        RNGkEpsilon;
    turbulence      on;
    printCoeffs     on;
    Cmu             0.0845;
    C1              1.42;
    C2              1.68;
    C3              0;
    sigmak          0.71942;
    sigmaEps        0.71942;
    eta0            4.38;
    beta            0.012;
}

No MRF models present

Creating finite volume options from "system/fvOptions"

Selecting finite volume options model type explicitPorositySource
    Source: source0
    - selecting cells using cellZone cz_solid_0
    - selected 2318 cell(s) with volume 0.00214561
Porosity region source0:
    selecting model: DarcyForchheimer
    creating porous zone: cz_solid_0
Selecting finite volume options model type explicitPorositySource
    Source: source1
    - selecting cells using cellZone cz_solid_1
    - selected 2452 cell(s) with volume 0.00214196
Porosity region source1:
    selecting model: DarcyForchheimer
    creating porous zone: cz_solid_1
Selecting finite volume options model type explicitPorositySource
    Source: source2
    - selecting cells using cellZone cz_solid_2
    - selected 2346 cell(s) with volume 0.00214568
Porosity region source2:
    selecting model: DarcyForchheimer
    creating porous zone: cz_solid_2
Selecting finite volume options model type explicitPorositySource
    Source: source3
    - selecting cells using cellZone cz_solid_3
    - selected 2089 cell(s) with volume 0.0021408
Porosity region source3:
    selecting model: DarcyForchheimer
    creating porous zone: cz_solid_3
Selecting finite volume options model type explicitPorositySource
    Source: source4
    - selecting cells using cellZone cz_solid_4
    - selected 2326 cell(s) with volume 0.00214479
Porosity region source4:
    selecting model: DarcyForchheimer
    creating porous zone: cz_solid_4
Selecting finite volume options model type explicitPorositySource
    Source: source5
    - selecting cells using cellZone cz_solid_5
    - selected 1880 cell(s) with volume 0.00214157
Porosity region source5:
    selecting model: DarcyForchheimer
    creating porous zone: cz_solid_5
Selecting finite volume options model type explicitPorositySource
    Source: source6
    - selecting cells using cellZone cz_solid_6
    - selected 2174 cell(s) with volume 0.00214473
Porosity region source6:
    selecting model: DarcyForchheimer
    creating porous zone: cz_solid_6
Selecting finite volume options model type explicitPorositySource
    Source: source7
    - selecting cells using cellZone cz_solid_7
    - selected 2094 cell(s) with volume 0.00214458
Porosity region source7:
    selecting model: DarcyForchheimer
    creating porous zone: cz_solid_7
Selecting finite volume options model type explicitPorositySource
    Source: source8
    - selecting cells using cellZone cz_solid_8
    - selected 1733 cell(s) with volume 0.0021431
Porosity region source8:
    selecting model: DarcyForchheimer
    creating porous zone: cz_solid_8
Selecting finite volume options model type explicitPorositySource
    Source: source9
    - selecting cells using cellZone cz_solid_9
    - selected 2083 cell(s) with volume 0.00214292
Porosity region source9:
    selecting model: DarcyForchheimer
    creating porous zone: cz_solid_9
Selecting finite volume options model type explicitPorositySource
    Source: source10
    - selecting cells using cellZone cz_solid_10
    - selected 2281 cell(s) with volume 0.00214538
Porosity region source10:
    selecting model: DarcyForchheimer
    creating porous zone: cz_solid_10
Selecting finite volume options model type explicitPorositySource
    Source: source11
    - selecting cells using cellZone cz_solid_11
    - selected 2356 cell(s) with volume 0.00214353
Porosity region source11:
    selecting model: DarcyForchheimer
    creating porous zone: cz_solid_11
Selecting finite volume options model type explicitPorositySource
    Source: source12
    - selecting cells using cellZone cz_solid_12
    - selected 2358 cell(s) with volume 0.00214464
Porosity region source12:
    selecting model: DarcyForchheimer
    creating porous zone: cz_solid_12
Selecting finite volume options model type explicitPorositySource
    Source: source13
    - selecting cells using cellZone cz_solid_13
    - selected 2004 cell(s) with volume 0.00214293
Porosity region source13:
    selecting model: DarcyForchheimer
    creating porous zone: cz_solid_13
Selecting finite volume options model type explicitPorositySource
    Source: source14
    - selecting cells using cellZone cz_solid_14
    - selected 1880 cell(s) with volume 0.00214434
Porosity region source14:
    selecting model: DarcyForchheimer
    creating porous zone: cz_solid_14
Selecting finite volume options model type explicitPorositySource
    Source: source15
    - selecting cells using cellZone cz_solid_15
    - selected 2114 cell(s) with volume 0.00214223
Porosity region source15:
    selecting model: DarcyForchheimer
    creating porous zone: cz_solid_15
Selecting finite volume options model type explicitPorositySource
    Source: source16
    - selecting cells using cellZone cz_solid_16
    - selected 2244 cell(s) with volume 0.00214179
Porosity region source16:
    selecting model: DarcyForchheimer
    creating porous zone: cz_solid_16
Selecting finite volume options model type explicitPorositySource
    Source: source17
    - selecting cells using cellZone cz_solid_17
    - selected 2319 cell(s) with volume 0.00214538
Porosity region source17:
    selecting model: DarcyForchheimer
    creating porous zone: cz_solid_17
Selecting finite volume options model type explicitPorositySource
    Source: source18
    - selecting cells using cellZone cz_solid_18
    - selected 2361 cell(s) with volume 0.00214503
Porosity region source18:
    selecting model: DarcyForchheimer
    creating porous zone: cz_solid_18
Selecting finite volume options model type explicitPorositySource
    Source: source19
    - selecting cells using cellZone cz_solid_19
    - selected 1815 cell(s) with volume 0.00213932
Porosity region source19:
    selecting model: DarcyForchheimer
    creating porous zone: cz_solid_19
Selecting finite volume options model type explicitPorositySource
    Source: source20
    - selecting cells using cellZone cz_solid_20
    - selected 2328 cell(s) with volume 0.00214514
Porosity region source20:
    selecting model: DarcyForchheimer
    creating porous zone: cz_solid_20
Selecting finite volume options model type explicitPorositySource
    Source: source21
    - selecting cells using cellZone cz_solid_21
    - selected 2444 cell(s) with volume 0.00214202
Porosity region source21:
    selecting model: DarcyForchheimer
    creating porous zone: cz_solid_21
Selecting finite volume options model type explicitPorositySource
    Source: source22
    - selecting cells using cellZone cz_solid_22
    - selected 2328 cell(s) with volume 0.0021456
Porosity region source22:
    selecting model: DarcyForchheimer
    creating porous zone: cz_solid_22
Selecting finite volume options model type explicitPorositySource
    Source: source23
    - selecting cells using cellZone cz_solid_23
    - selected 2088 cell(s) with volume 0.00214076
Porosity region source23:
    selecting model: DarcyForchheimer
    creating porous zone: cz_solid_23
Selecting finite volume options model type explicitPorositySource
    Source: source24
    - selecting cells using cellZone cz_solid_24
    - selected 2332 cell(s) with volume 0.00214475
Porosity region source24:
    selecting model: DarcyForchheimer
    creating porous zone: cz_solid_24
Selecting finite volume options model type explicitPorositySource
    Source: source25
    - selecting cells using cellZone cz_solid_25
    - selected 1892 cell(s) with volume 0.00214108
Porosity region source25:
    selecting model: DarcyForchheimer
    creating porous zone: cz_solid_25
Selecting finite volume options model type explicitPorositySource
    Source: source26
    - selecting cells using cellZone cz_solid_26
    - selected 2164 cell(s) with volume 0.00214457
Porosity region source26:
    selecting model: DarcyForchheimer
    creating porous zone: cz_solid_26
Selecting finite volume options model type explicitPorositySource
    Source: source27
    - selecting cells using cellZone cz_solid_27
    - selected 2090 cell(s) with volume 0.0021448
Porosity region source27:
    selecting model: DarcyForchheimer
    creating porous zone: cz_solid_27
Selecting finite volume options model type explicitPorositySource
    Source: source28
    - selecting cells using cellZone cz_solid_28
    - selected 1738 cell(s) with volume 0.00214301
Porosity region source28:
    selecting model: DarcyForchheimer
    creating porous zone: cz_solid_28
Selecting finite volume options model type explicitPorositySource
    Source: source29
    - selecting cells using cellZone cz_solid_29
    - selected 2074 cell(s) with volume 0.00214274
Porosity region source29:
    selecting model: DarcyForchheimer
    creating porous zone: cz_solid_29
Selecting finite volume options model type explicitPorositySource
    Source: source30
    - selecting cells using cellZone cz_solid_30
    - selected 2292 cell(s) with volume 0.00214513
Porosity region source30:
    selecting model: DarcyForchheimer
    creating porous zone: cz_solid_30
Selecting finite volume options model type explicitPorositySource
    Source: source31
    - selecting cells using cellZone cz_solid_31
    - selected 2368 cell(s) with volume 0.00214361
Porosity region source31:
    selecting model: DarcyForchheimer
    creating porous zone: cz_solid_31
Selecting finite volume options model type explicitPorositySource
    Source: source32
    - selecting cells using cellZone cz_solid_32
    - selected 2348 cell(s) with volume 0.0021446
Porosity region source32:
    selecting model: DarcyForchheimer
    creating porous zone: cz_solid_32
Selecting finite volume options model type explicitPorositySource
    Source: source33
    - selecting cells using cellZone cz_solid_33
    - selected 1996 cell(s) with volume 0.0021429
Porosity region source33:
    selecting model: DarcyForchheimer
    creating porous zone: cz_solid_33
Selecting finite volume options model type explicitPorositySource
    Source: source34
    - selecting cells using cellZone cz_solid_34
    - selected 1892 cell(s) with volume 0.00214422
Porosity region source34:
    selecting model: DarcyForchheimer
    creating porous zone: cz_solid_34
Selecting finite volume options model type explicitPorositySource
    Source: source35
    - selecting cells using cellZone cz_solid_35
    - selected 2106 cell(s) with volume 0.00214165
Porosity region source35:
    selecting model: DarcyForchheimer
    creating porous zone: cz_solid_35
Selecting finite volume options model type explicitPorositySource
    Source: source36
    - selecting cells using cellZone cz_solid_36
    - selected 2256 cell(s) with volume 0.00214185
Porosity region source36:
    selecting model: DarcyForchheimer
    creating porous zone: cz_solid_36
Selecting finite volume options model type explicitPorositySource
    Source: source37
    - selecting cells using cellZone cz_solid_37
    - selected 2332 cell(s) with volume 0.00214487
Porosity region source37:
    selecting model: DarcyForchheimer
    creating porous zone: cz_solid_37
Selecting finite volume options model type explicitPorositySource
    Source: source38
    - selecting cells using cellZone cz_solid_38
    - selected 2346 cell(s) with volume 0.00214442
Porosity region source38:
    selecting model: DarcyForchheimer
    creating porous zone: cz_solid_38
Selecting finite volume options model type explicitPorositySource
    Source: source39
    - selecting cells using cellZone cz_solid_39
    - selected 1814 cell(s) with volume 0.00213943
Porosity region source39:
    selecting model: DarcyForchheimer
    creating porous zone: cz_solid_39
Selecting finite volume options model type explicitPorositySource
    Source: source40
    - selecting cells using cellZone cz_solid_40
    - selected 2388 cell(s) with volume 0.00214554
Porosity region source40:
    selecting model: DarcyForchheimer
    creating porous zone: cz_solid_40
Selecting finite volume options model type explicitPorositySource
    Source: source41
    - selecting cells using cellZone cz_solid_41
    - selected 2508 cell(s) with volume 0.00214189
Porosity region source41:
    selecting model: DarcyForchheimer
    creating porous zone: cz_solid_41
Selecting finite volume options model type explicitPorositySource
    Source: source42
    - selecting cells using cellZone cz_solid_42
    - selected 2409 cell(s) with volume 0.00214567
Porosity region source42:
    selecting model: DarcyForchheimer
    creating porous zone: cz_solid_42
Selecting finite volume options model type explicitPorositySource
    Source: source43
    - selecting cells using cellZone cz_solid_43
    - selected 2159 cell(s) with volume 0.00214085
Porosity region source43:
    selecting model: DarcyForchheimer
    creating porous zone: cz_solid_43
Selecting finite volume options model type explicitPorositySource
    Source: source44
    - selecting cells using cellZone cz_solid_44
    - selected 2396 cell(s) with volume 0.00214494
Porosity region source44:
    selecting model: DarcyForchheimer
    creating porous zone: cz_solid_44
Selecting finite volume options model type explicitPorositySource
    Source: source45
    - selecting cells using cellZone cz_solid_45
    - selected 1964 cell(s) with volume 0.00214173
Porosity region source45:
    selecting model: DarcyForchheimer
    creating porous zone: cz_solid_45
Selecting finite volume options model type explicitPorositySource
    Source: source46
    - selecting cells using cellZone cz_solid_46
    - selected 2244 cell(s) with volume 0.00214471
Porosity region source46:
    selecting model: DarcyForchheimer
    creating porous zone: cz_solid_46
Selecting finite volume options model type explicitPorositySource
    Source: source47
    - selecting cells using cellZone cz_solid_47
    - selected 2171 cell(s) with volume 0.0021446
Porosity region source47:
    selecting model: DarcyForchheimer
    creating porous zone: cz_solid_47
Selecting finite volume options model type explicitPorositySource
    Source: source48
    - selecting cells using cellZone cz_solid_48
    - selected 1810 cell(s) with volume 0.00214311
Porosity region source48:
    selecting model: DarcyForchheimer
    creating porous zone: cz_solid_48
Selecting finite volume options model type explicitPorositySource
    Source: source49
    - selecting cells using cellZone cz_solid_49
    - selected 2139 cell(s) with volume 0.00214287
Porosity region source49:
    selecting model: DarcyForchheimer
    creating porous zone: cz_solid_49
Selecting finite volume options model type explicitPorositySource
    Source: source50
    - selecting cells using cellZone cz_solid_50
    - selected 2365 cell(s) with volume 0.002145
Porosity region source50:
    selecting model: DarcyForchheimer
    creating porous zone: cz_solid_50
Selecting finite volume options model type explicitPorositySource
    Source: source51
    - selecting cells using cellZone cz_solid_51
    - selected 2433 cell(s) with volume 0.00214357
Porosity region source51:
    selecting model: DarcyForchheimer
    creating porous zone: cz_solid_51
Selecting finite volume options model type explicitPorositySource
    Source: source52
    - selecting cells using cellZone cz_solid_52
    - selected 2414 cell(s) with volume 0.0021445
Porosity region source52:
    selecting model: DarcyForchheimer
    creating porous zone: cz_solid_52
Selecting finite volume options model type explicitPorositySource
    Source: source53
    - selecting cells using cellZone cz_solid_53
    - selected 2060 cell(s) with volume 0.00214297
Porosity region source53:
    selecting model: DarcyForchheimer
    creating porous zone: cz_solid_53
Selecting finite volume options model type explicitPorositySource
    Source: source54
    - selecting cells using cellZone cz_solid_54
    - selected 1964 cell(s) with volume 0.0021443
Porosity region source54:
    selecting model: DarcyForchheimer
    creating porous zone: cz_solid_54
Selecting finite volume options model type explicitPorositySource
    Source: source55
    - selecting cells using cellZone cz_solid_55
    - selected 2177 cell(s) with volume 0.002142
Porosity region source55:
    selecting model: DarcyForchheimer
    creating porous zone: cz_solid_55
Selecting finite volume options model type explicitPorositySource
    Source: source56
    - selecting cells using cellZone cz_solid_56
    - selected 2321 cell(s) with volume 0.0021418
Porosity region source56:
    selecting model: DarcyForchheimer
    creating porous zone: cz_solid_56
Selecting finite volume options model type explicitPorositySource
    Source: source57
    - selecting cells using cellZone cz_solid_57
    - selected 2389 cell(s) with volume 0.00214537
Porosity region source57:
    selecting model: DarcyForchheimer
    creating porous zone: cz_solid_57
Selecting finite volume options model type explicitPorositySource
    Source: source58
    - selecting cells using cellZone cz_solid_58
    - selected 2417 cell(s) with volume 0.00214493
Porosity region source58:
    selecting model: DarcyForchheimer
    creating porous zone: cz_solid_58
Selecting finite volume options model type explicitPorositySource
    Source: source59
    - selecting cells using cellZone cz_solid_59
    - selected 1885 cell(s) with volume 0.00213929
Porosity region source59:
    selecting model: DarcyForchheimer
    creating porous zone: cz_solid_59
Selecting finite volume options model type explicitPorositySource
    Source: source60
    - selecting cells using cellZone cz_solid_60
    - selected 2374 cell(s) with volume 0.00214539
Porosity region source60:
    selecting model: DarcyForchheimer
    creating porous zone: cz_solid_60
Selecting finite volume options model type explicitPorositySource
    Source: source61
    - selecting cells using cellZone cz_solid_61
    - selected 2473 cell(s) with volume 0.00214196
Porosity region source61:
    selecting model: DarcyForchheimer
    creating porous zone: cz_solid_61
Selecting finite volume options model type explicitPorositySource
    Source: source62
    - selecting cells using cellZone cz_solid_62
    - selected 2346 cell(s) with volume 0.00214562
Porosity region source62:
    selecting model: DarcyForchheimer
    creating porous zone: cz_solid_62
Selecting finite volume options model type explicitPorositySource
    Source: source63
    - selecting cells using cellZone cz_solid_63
    - selected 2096 cell(s) with volume 0.00214085
Porosity region source63:
    selecting model: DarcyForchheimer
    creating porous zone: cz_solid_63
Selecting finite volume options model type explicitPorositySource
    Source: source64
    - selecting cells using cellZone cz_solid_64
    - selected 2326 cell(s) with volume 0.00214524
Porosity region source64:
    selecting model: DarcyForchheimer
    creating porous zone: cz_solid_64
Selecting finite volume options model type explicitPorositySource
    Source: source65
    - selecting cells using cellZone cz_solid_65
    - selected 1883 cell(s) with volume 0.00214181
Porosity region source65:
    selecting model: DarcyForchheimer
    creating porous zone: cz_solid_65
Selecting finite volume options model type explicitPorositySource
    Source: source66
    - selecting cells using cellZone cz_solid_66
    - selected 2198 cell(s) with volume 0.00214428
Porosity region source66:
    selecting model: DarcyForchheimer
    creating porous zone: cz_solid_66
Selecting finite volume options model type explicitPorositySource
    Source: source67
    - selecting cells using cellZone cz_solid_67
    - selected 2118 cell(s) with volume 0.00214492
Porosity region source67:
    selecting model: DarcyForchheimer
    creating porous zone: cz_solid_67
Selecting finite volume options model type explicitPorositySource
    Source: source68
    - selecting cells using cellZone cz_solid_68
    - selected 1727 cell(s) with volume 0.00214314
Porosity region source68:
    selecting model: DarcyForchheimer
    creating porous zone: cz_solid_68
Selecting finite volume options model type explicitPorositySource
    Source: source69
    - selecting cells using cellZone cz_solid_69
    - selected 2097 cell(s) with volume 0.00214274
Porosity region source69:
    selecting model: DarcyForchheimer
    creating porous zone: cz_solid_69
Selecting finite volume options model type explicitPorositySource
    Source: source70
    - selecting cells using cellZone cz_solid_70
    - selected 2309 cell(s) with volume 0.00214523
Porosity region source70:
    selecting model: DarcyForchheimer
    creating porous zone: cz_solid_70
Selecting finite volume options model type explicitPorositySource
    Source: source71
    - selecting cells using cellZone cz_solid_71
    - selected 2377 cell(s) with volume 0.00214369
Porosity region source71:
    selecting model: DarcyForchheimer
    creating porous zone: cz_solid_71
Selecting finite volume options model type explicitPorositySource
    Source: source72
    - selecting cells using cellZone cz_solid_72
    - selected 2393 cell(s) with volume 0.00214456
Porosity region source72:
    selecting model: DarcyForchheimer
    creating porous zone: cz_solid_72
Selecting finite volume options model type explicitPorositySource
    Source: source73
    - selecting cells using cellZone cz_solid_73
    - selected 1997 cell(s) with volume 0.0021427
Porosity region source73:
    selecting model: DarcyForchheimer
    creating porous zone: cz_solid_73
Selecting finite volume options model type explicitPorositySource
    Source: source74
    - selecting cells using cellZone cz_solid_74
    - selected 1891 cell(s) with volume 0.00214432
Porosity region source74:
    selecting model: DarcyForchheimer
    creating porous zone: cz_solid_74
Selecting finite volume options model type explicitPorositySource
    Source: source75
    - selecting cells using cellZone cz_solid_75
    - selected 2119 cell(s) with volume 0.00214207
Porosity region source75:
    selecting model: DarcyForchheimer
    creating porous zone: cz_solid_75
Selecting finite volume options model type explicitPorositySource
    Source: source76
    - selecting cells using cellZone cz_solid_76
    - selected 2244 cell(s) with volume 0.00214185
Porosity region source76:
    selecting model: DarcyForchheimer
    creating porous zone: cz_solid_76
Selecting finite volume options model type explicitPorositySource
    Source: source77
    - selecting cells using cellZone cz_solid_77
    - selected 2361 cell(s) with volume 0.00214566
Porosity region source77:
    selecting model: DarcyForchheimer
    creating porous zone: cz_solid_77
Selecting finite volume options model type explicitPorositySource
    Source: source78
    - selecting cells using cellZone cz_solid_78
    - selected 2382 cell(s) with volume 0.00214537
Porosity region source78:
    selecting model: DarcyForchheimer
    creating porous zone: cz_solid_78
Selecting finite volume options model type explicitPorositySource
    Source: source79
    - selecting cells using cellZone cz_solid_79
    - selected 1803 cell(s) with volume 0.00213926
Porosity region source79:
    selecting model: DarcyForchheimer
    creating porous zone: cz_solid_79
Selecting finite volume options model type explicitPorositySource
    Source: source80
    - selecting cells using cellZone cz_solid_80
    - selected 2374 cell(s) with volume 0.00214597
Porosity region source80:
    selecting model: DarcyForchheimer
    creating porous zone: cz_solid_80
Selecting finite volume options model type explicitPorositySource
    Source: source81
    - selecting cells using cellZone cz_solid_81
    - selected 2467 cell(s) with volume 0.00214304
Porosity region source81:
    selecting model: DarcyForchheimer
    creating porous zone: cz_solid_81
Selecting finite volume options model type explicitPorositySource
    Source: source82
    - selecting cells using cellZone cz_solid_82
    - selected 2343 cell(s) with volume 0.00214633
Porosity region source82:
    selecting model: DarcyForchheimer
    creating porous zone: cz_solid_82
Selecting finite volume options model type explicitPorositySource
    Source: source83
    - selecting cells using cellZone cz_solid_83
    - selected 2093 cell(s) with volume 0.00214156
Porosity region source83:
    selecting model: DarcyForchheimer
    creating porous zone: cz_solid_83
Selecting finite volume options model type explicitPorositySource
    Source: source84
    - selecting cells using cellZone cz_solid_84
    - selected 2326 cell(s) with volume 0.0021454
Porosity region source84:
    selecting model: DarcyForchheimer
    creating porous zone: cz_solid_84
Selecting finite volume options model type explicitPorositySource
    Source: source85
    - selecting cells using cellZone cz_solid_85
    - selected 1877 cell(s) with volume 0.0021423
Porosity region source85:
    selecting model: DarcyForchheimer
    creating porous zone: cz_solid_85
Selecting finite volume options model type explicitPorositySource
    Source: source86
    - selecting cells using cellZone cz_solid_86
    - selected 2189 cell(s) with volume 0.00214533
Porosity region source86:
    selecting model: DarcyForchheimer
    creating porous zone: cz_solid_86
Selecting finite volume options model type explicitPorositySource
    Source: source87
    - selecting cells using cellZone cz_solid_87
    - selected 2109 cell(s) with volume 0.00214626
Porosity region source87:
    selecting model: DarcyForchheimer
    creating porous zone: cz_solid_87
Selecting finite volume options model type explicitPorositySource
    Source: source88
    - selecting cells using cellZone cz_solid_88
    - selected 1718 cell(s) with volume 0.00214467
Porosity region source88:
    selecting model: DarcyForchheimer
    creating porous zone: cz_solid_88
Selecting finite volume options model type explicitPorositySource
    Source: source89
    - selecting cells using cellZone cz_solid_89
    - selected 2091 cell(s) with volume 0.00214378
Porosity region source89:
    selecting model: DarcyForchheimer
    creating porous zone: cz_solid_89
Selecting finite volume options model type explicitPorositySource
    Source: source90
    - selecting cells using cellZone cz_solid_90
    - selected 2303 cell(s) with volume 0.00214605
Porosity region source90:
    selecting model: DarcyForchheimer
    creating porous zone: cz_solid_90
Selecting finite volume options model type explicitPorositySource
    Source: source91
    - selecting cells using cellZone cz_solid_91
    - selected 2374 cell(s) with volume 0.00214431
Porosity region source91:
    selecting model: DarcyForchheimer
    creating porous zone: cz_solid_91
Selecting finite volume options model type explicitPorositySource
    Source: source92
    - selecting cells using cellZone cz_solid_92
    - selected 2393 cell(s) with volume 0.00214486
Porosity region source92:
    selecting model: DarcyForchheimer
    creating porous zone: cz_solid_92
Selecting finite volume options model type explicitPorositySource
    Source: source93
    - selecting cells using cellZone cz_solid_93
    - selected 1991 cell(s) with volume 0.00214364
Porosity region source93:
    selecting model: DarcyForchheimer
    creating porous zone: cz_solid_93
Selecting finite volume options model type explicitPorositySource
    Source: source94
    - selecting cells using cellZone cz_solid_94
    - selected 1882 cell(s) with volume 0.00214602
Porosity region source94:
    selecting model: DarcyForchheimer
    creating porous zone: cz_solid_94
Selecting finite volume options model type explicitPorositySource
    Source: source95
    - selecting cells using cellZone cz_solid_95
    - selected 2119 cell(s) with volume 0.00214249
Porosity region source95:
    selecting model: DarcyForchheimer
    creating porous zone: cz_solid_95
Selecting finite volume options model type explicitPorositySource
    Source: source96
    - selecting cells using cellZone cz_solid_96
    - selected 2241 cell(s) with volume 0.00214277
Porosity region source96:
    selecting model: DarcyForchheimer
    creating porous zone: cz_solid_96
Selecting finite volume options model type explicitPorositySource
    Source: source97
    - selecting cells using cellZone cz_solid_97
    - selected 2361 cell(s) with volume 0.00214564
Porosity region source97:
    selecting model: DarcyForchheimer
    creating porous zone: cz_solid_97
Selecting finite volume options model type explicitPorositySource
    Source: source98
    - selecting cells using cellZone cz_solid_98
    - selected 2376 cell(s) with volume 0.00214576
Porosity region source98:
    selecting model: DarcyForchheimer
    creating porous zone: cz_solid_98
Selecting finite volume options model type explicitPorositySource
    Source: source99
    - selecting cells using cellZone cz_solid_99
    - selected 1797 cell(s) with volume 0.00214042
Porosity region source99:
    selecting model: DarcyForchheimer
    creating porous zone: cz_solid_99

Starting time loop

forces porousforces:
--> FOAM Warning : 
    From function Foam::labelHashSet Foam::polyBoundaryMesh::patchSet(const Foam::UList<Foam::wordRe>&, bool, bool) const
    in file meshes/polyMesh/polyBoundaryMesh/polyBoundaryMesh.C at line 798
    Cannot find any patch or group names matching solid_to_fluid
    Including porosity effects


surfaceFieldValue massFlowAtFilter_0:
    total faces  = 1950
    total area   = 0.10174




surfaceFieldValue massFlowAtFilter_1:
    total faces  = 1802
    total area   = 0.101672




surfaceFieldValue massFlowAtFilter_2:
    total faces  = 1953
    total area   = 0.101718




surfaceFieldValue massFlowAtFilter_3:
    total faces  = 1690
    total area   = 0.101676




surfaceFieldValue massFlowAtFilter_4:
    total faces  = 1822
    total area   = 0.101827




surfaceFieldValue massFlowAtFilter_5:
    total faces  = 1697
    total area   = 0.101758




surfaceFieldValue massFlowAtFilter_6:
    total faces  = 1814
    total area   = 0.101919




surfaceFieldValue massFlowAtFilter_7:
    total faces  = 1867
    total area   = 0.101728




surfaceFieldValue massFlowAtFilter_8:
    total faces  = 1711
    total area   = 0.101705




surfaceFieldValue massFlowAtFilter_9:
    total faces  = 1672
    total area   = 0.101729




surfaceFieldValue massFlowAtFilter_10:
    total faces  = 1868
    total area   = 0.10175




surfaceFieldValue massFlowAtFilter_11:
    total faces  = 1795
    total area   = 0.101721




surfaceFieldValue massFlowAtFilter_12:
    total faces  = 1844
    total area   = 0.101731




surfaceFieldValue massFlowAtFilter_13:
    total faces  = 1658
    total area   = 0.101729




surfaceFieldValue massFlowAtFilter_14:
    total faces  = 1794
    total area   = 0.10173




surfaceFieldValue massFlowAtFilter_15:
    total faces  = 1777
    total area   = 0.10175




surfaceFieldValue massFlowAtFilter_16:
    total faces  = 1747
    total area   = 0.101685




surfaceFieldValue massFlowAtFilter_17:
    total faces  = 1833
    total area   = 0.101817




surfaceFieldValue massFlowAtFilter_18:
    total faces  = 1834
    total area   = 0.101821




surfaceFieldValue massFlowAtFilter_19:
    total faces  = 1612
    total area   = 0.10165




surfaceFieldValue massFlowAtFilter_20:
    total faces  = 1932
    total area   = 0.101606




surfaceFieldValue massFlowAtFilter_21:
    total faces  = 1782
    total area   = 0.101628




surfaceFieldValue massFlowAtFilter_22:
    total faces  = 1932
    total area   = 0.101626




surfaceFieldValue massFlowAtFilter_23:
    total faces  = 1676
    total area   = 0.101629




surfaceFieldValue massFlowAtFilter_24:
    total faces  = 1806
    total area   = 0.101653




surfaceFieldValue massFlowAtFilter_25:
    total faces  = 1686
    total area   = 0.10157




surfaceFieldValue massFlowAtFilter_26:
    total faces  = 1798
    total area   = 0.101837




surfaceFieldValue massFlowAtFilter_27:
    total faces  = 1852
    total area   = 0.101649




surfaceFieldValue massFlowAtFilter_28:
    total faces  = 1698
    total area   = 0.101666




surfaceFieldValue massFlowAtFilter_29:
    total faces  = 1652
    total area   = 0.101694




surfaceFieldValue massFlowAtFilter_30:
    total faces  = 1858
    total area   = 0.10173




surfaceFieldValue massFlowAtFilter_31:
    total faces  = 1784
    total area   = 0.101697




surfaceFieldValue massFlowAtFilter_32:
    total faces  = 1822
    total area   = 0.101711




surfaceFieldValue massFlowAtFilter_33:
    total faces  = 1638
    total area   = 0.101705




surfaceFieldValue massFlowAtFilter_34:
    total faces  = 1784
    total area   = 0.101694




surfaceFieldValue massFlowAtFilter_35:
    total faces  = 1758
    total area   = 0.101629




surfaceFieldValue massFlowAtFilter_36:
    total faces  = 1736
    total area   = 0.101634




surfaceFieldValue massFlowAtFilter_37:
    total faces  = 1818
    total area   = 0.101626




surfaceFieldValue massFlowAtFilter_38:
    total faces  = 1812
    total area   = 0.101652




surfaceFieldValue massFlowAtFilter_39:
    total faces  = 1598
    total area   = 0.101588




surfaceFieldValue massFlowAtFilter_40:
    total faces  = 1980
    total area   = 0.101735




surfaceFieldValue massFlowAtFilter_41:
    total faces  = 1826
    total area   = 0.101673




surfaceFieldValue massFlowAtFilter_42:
    total faces  = 1980
    total area   = 0.101712




surfaceFieldValue massFlowAtFilter_43:
    total faces  = 1720
    total area   = 0.10167




surfaceFieldValue massFlowAtFilter_44:
    total faces  = 1852
    total area   = 0.101817




surfaceFieldValue massFlowAtFilter_45:
    total faces  = 1733
    total area   = 0.101794




surfaceFieldValue massFlowAtFilter_46:
    total faces  = 1844
    total area   = 0.101919




surfaceFieldValue massFlowAtFilter_47:
    total faces  = 1900
    total area   = 0.101729




surfaceFieldValue massFlowAtFilter_48:
    total faces  = 1744
    total area   = 0.101691




surfaceFieldValue massFlowAtFilter_49:
    total faces  = 1696
    total area   = 0.101735




surfaceFieldValue massFlowAtFilter_50:
    total faces  = 1904
    total area   = 0.101747




surfaceFieldValue massFlowAtFilter_51:
    total faces  = 1828
    total area   = 0.101713




surfaceFieldValue massFlowAtFilter_52:
    total faces  = 1868
    total area   = 0.101735




surfaceFieldValue massFlowAtFilter_53:
    total faces  = 1682
    total area   = 0.10173




surfaceFieldValue massFlowAtFilter_54:
    total faces  = 1830
    total area   = 0.101719




surfaceFieldValue massFlowAtFilter_55:
    total faces  = 1804
    total area   = 0.101747




surfaceFieldValue massFlowAtFilter_56:
    total faces  = 1780
    total area   = 0.101676




surfaceFieldValue massFlowAtFilter_57:
    total faces  = 1863
    total area   = 0.101841




surfaceFieldValue massFlowAtFilter_58:
    total faces  = 1858
    total area   = 0.101822




surfaceFieldValue massFlowAtFilter_59:
    total faces  = 1642
    total area   = 0.10165




surfaceFieldValue massFlowAtFilter_60:
    total faces  = 1980
    total area   = 0.101732




surfaceFieldValue massFlowAtFilter_61:
    total faces  = 1826
    total area   = 0.101672




surfaceFieldValue massFlowAtFilter_62:
    total faces  = 1980
    total area   = 0.101687




surfaceFieldValue massFlowAtFilter_63:
    total faces  = 1714
    total area   = 0.101663




surfaceFieldValue massFlowAtFilter_64:
    total faces  = 1849
    total area   = 0.101799




surfaceFieldValue massFlowAtFilter_65:
    total faces  = 1718
    total area   = 0.101755




surfaceFieldValue massFlowAtFilter_66:
    total faces  = 1849
    total area   = 0.101822




surfaceFieldValue massFlowAtFilter_67:
    total faces  = 1910
    total area   = 0.101731




surfaceFieldValue massFlowAtFilter_68:
    total faces  = 1736
    total area   = 0.101705




surfaceFieldValue massFlowAtFilter_69:
    total faces  = 1693
    total area   = 0.101724




surfaceFieldValue massFlowAtFilter_70:
    total faces  = 1904
    total area   = 0.101731




surfaceFieldValue massFlowAtFilter_71:
    total faces  = 1828
    total area   = 0.101717




surfaceFieldValue massFlowAtFilter_72:
    total faces  = 1865
    total area   = 0.101723




surfaceFieldValue massFlowAtFilter_73:
    total faces  = 1673
    total area   = 0.101725




surfaceFieldValue massFlowAtFilter_74:
    total faces  = 1828
    total area   = 0.101716




surfaceFieldValue massFlowAtFilter_75:
    total faces  = 1805
    total area   = 0.101748




surfaceFieldValue massFlowAtFilter_76:
    total faces  = 1771
    total area   = 0.101672




surfaceFieldValue massFlowAtFilter_77:
    total faces  = 1863
    total area   = 0.101855




surfaceFieldValue massFlowAtFilter_78:
    total faces  = 1861
    total area   = 0.101808




surfaceFieldValue massFlowAtFilter_79:
    total faces  = 1630
    total area   = 0.101639




surfaceFieldValue massFlowAtFilter_80:
    total faces  = 1980
    total area   = 0.101658




surfaceFieldValue massFlowAtFilter_81:
    total faces  = 1832
    total area   = 0.101548




surfaceFieldValue massFlowAtFilter_82:
    total faces  = 1985
    total area   = 0.101591




surfaceFieldValue massFlowAtFilter_83:
    total faces  = 1719
    total area   = 0.101556




surfaceFieldValue massFlowAtFilter_84:
    total faces  = 1849
    total area   = 0.101646




surfaceFieldValue massFlowAtFilter_85:
    total faces  = 1724
    total area   = 0.101613




surfaceFieldValue massFlowAtFilter_86:
    total faces  = 1856
    total area   = 0.10163




surfaceFieldValue massFlowAtFilter_87:
    total faces  = 1917
    total area   = 0.101582




surfaceFieldValue massFlowAtFilter_88:
    total faces  = 1743
    total area   = 0.101591




surfaceFieldValue massFlowAtFilter_89:
    total faces  = 1699
    total area   = 0.101635




surfaceFieldValue massFlowAtFilter_90:
    total faces  = 1910
    total area   = 0.101644




surfaceFieldValue massFlowAtFilter_91:
    total faces  = 1833
    total area   = 0.101599




surfaceFieldValue massFlowAtFilter_92:
    total faces  = 1865
    total area   = 0.10165




surfaceFieldValue massFlowAtFilter_93:
    total faces  = 1679
    total area   = 0.101624




surfaceFieldValue massFlowAtFilter_94:
    total faces  = 1835
    total area   = 0.101582




surfaceFieldValue massFlowAtFilter_95:
    total faces  = 1805
    total area   = 0.101646




surfaceFieldValue massFlowAtFilter_96:
    total faces  = 1776
    total area   = 0.101571




surfaceFieldValue massFlowAtFilter_97:
    total faces  = 1863
    total area   = 0.10167




surfaceFieldValue massFlowAtFilter_98:
    total faces  = 1867
    total area   = 0.101639




surfaceFieldValue massFlowAtFilter_99:
    total faces  = 1636
    total area   = 0.101544


Time = 1

DILUPBiCG:  Solving for Ux, Initial residual = 1, Final residual = 1.25259e-06, No Iterations 6
DILUPBiCG:  Solving for Uy, Initial residual = 1, Final residual = 2.14806e-06, No Iterations 7
DILUPBiCG:  Solving for Uz, Initial residual = 1, Final residual = 3.72496e-06, No Iterations 6
DICPCG:  Solving for p, Initial residual = 1, Final residual = 0.0990188, No Iterations 327
DICPCG:  Solving for p, Initial residual = 0.00323594, Final residual = 0.000250408, No Iterations 4
DICPCG:  Solving for p, Initial residual = 0.000467742, Final residual = 4.65767e-05, No Iterations 39
time step continuity errors : sum local = 0.049905, global = -0.000411631, cumulative = -0.000411631
DILUPBiCG:  Solving for epsilon, Initial residual = 0.0522249, Final residual = 9.31153e-06, No Iterations 3
DILUPBiCG:  Solving for k, Initial residual = 1, Final residual = 5.42153e-07, No Iterations 6
ExecutionTime = 6.78 s  ClockTime = 6 s

Time = 2

DILUPBiCG:  Solving for Ux, Initial residual = 0.000133506, Final residual = 3.5298e-06, No Iterations 2
DILUPBiCG:  Solving for Uy, Initial residual = 5.67677e-05, Final residual = 2.85558e-07, No Iterations 3
DILUPBiCG:  Solving for Uz, Initial residual = 0.000123597, Final residual = 3.40882e-06, No Iterations 2
DICPCG:  Solving for p, Initial residual = 0.0102162, Final residual = 0.00102045, No Iterations 128
DICPCG:  Solving for p, Initial residual = 0.00539852, Final residual = 0.000533958, No Iterations 228
DICPCG:  Solving for p, Initial residual = 0.00501255, Final residual = 0.000498612, No Iterations 56
time step continuity errors : sum local = 0.0607302, global = 0.00117408, cumulative = 0.000762447
DILUPBiCG:  Solving for epsilon, Initial residual = 0.0133993, Final residual = 7.74873e-07, No Iterations 4
DILUPBiCG:  Solving for k, Initial residual = 0.523707, Final residual = 5.27159e-08, No Iterations 7
ExecutionTime = 11.62 s  ClockTime = 11 s

Time = 3

DILUPBiCG:  Solving for Ux, Initial residual = 1.94246e-05, Final residual = 3.26265e-06, No Iterations 1
DILUPBiCG:  Solving for Uy, Initial residual = 1.16187e-05, Final residual = 2.17764e-06, No Iterations 1
DILUPBiCG:  Solving for Uz, Initial residual = 3.15502e-05, Final residual = 9.61278e-06, No Iterations 1
DICPCG:  Solving for p, Initial residual = 0.0202104, Final residual = 0.00200852, No Iterations 299
DICPCG:  Solving for p, Initial residual = 0.007256, Final residual = 0.000611666, No Iterations 4
DICPCG:  Solving for p, Initial residual = 0.00103344, Final residual = 0.000103008, No Iterations 50
time step continuity errors : sum local = 0.0568297, global = 0.000123478, cumulative = 0.000885925
DILUPBiCG:  Solving for epsilon, Initial residual = 0.0180038, Final residual = 1.09425e-06, No Iterations 4
DILUPBiCG:  Solving for k, Initial residual = 0.261116, Final residual = 2.2321e-08, No Iterations 7
ExecutionTime = 15.85 s  ClockTime = 15 s

Time = 4

DILUPBiCG:  Solving for Ux, Initial residual = 5.42623e-06, Final residual = 5.42623e-06, No Iterations 0
DILUPBiCG:  Solving for Uy, Initial residual = 1.97988e-06, Final residual = 1.97988e-06, No Iterations 0
DILUPBiCG:  Solving for Uz, Initial residual = 7.05584e-06, Final residual = 7.05584e-06, No Iterations 0
DICPCG:  Solving for p, Initial residual = 0.0766525, Final residual = 0.0075093, No Iterations 309
DICPCG:  Solving for p, Initial residual = 0.00520254, Final residual = 0.000499837, No Iterations 3
DICPCG:  Solving for p, Initial residual = 0.000756294, Final residual = 7.13047e-05, No Iterations 46
time step continuity errors : sum local = 0.0361914, global = -1.53915e-05, cumulative = 0.000870534
DILUPBiCG:  Solving for epsilon, Initial residual = 0.0170304, Final residual = 6.34983e-06, No Iterations 3
DILUPBiCG:  Solving for k, Initial residual = 0.151822, Final residual = 6.52766e-07, No Iterations 5
ExecutionTime = 19.99 s  ClockTime = 20 s

Time = 5

DILUPBiCG:  Solving for Ux, Initial residual = 1.62357e-05, Final residual = 3.30607e-06, No Iterations 1
DILUPBiCG:  Solving for Uy, Initial residual = 8.70097e-06, Final residual = 8.70097e-06, No Iterations 0
DILUPBiCG:  Solving for Uz, Initial residual = 1.58676e-05, Final residual = 3.93979e-06, No Iterations 1
DICPCG:  Solving for p, Initial residual = 0.0212912, Final residual = 0.00206063, No Iterations 48
DICPCG:  Solving for p, Initial residual = 0.00644257, Final residual = 0.00062358, No Iterations 268
DICPCG:  Solving for p, Initial residual = 0.00213491, Final residual = 0.0002047, No Iterations 4
time step continuity errors : sum local = 0.0651986, global = 0.0010331, cumulative = 0.00190364
DILUPBiCG:  Solving for epsilon, Initial residual = 0.0145227, Final residual = 4.86861e-06, No Iterations 3
DILUPBiCG:  Solving for k, Initial residual = 0.108246, Final residual = 5.98016e-07, No Iterations 5
ExecutionTime = 23.83 s  ClockTime = 23 s

Time = 6

DILUPBiCG:  Solving for Ux, Initial residual = 2.12638e-05, Final residual = 4.79825e-06, No Iterations 1
DILUPBiCG:  Solving for Uy, Initial residual = 1.27209e-05, Final residual = 2.51971e-06, No Iterations 1
DILUPBiCG:  Solving for Uz, Initial residual = 1.7721e-05, Final residual = 5.48245e-06, No Iterations 1
DICPCG:  Solving for p, Initial residual = 0.0246421, Final residual = 0.00239746, No Iterations 296
DICPCG:  Solving for p, Initial residual = 0.00801499, Final residual = 0.00079161, No Iterations 5
DICPCG:  Solving for p, Initial residual = 0.00120021, Final residual = 0.000118103, No Iterations 58
time step continuity errors : sum local = 0.0479078, global = -0.000527339, cumulative = 0.0013763
DILUPBiCG:  Solving for epsilon, Initial residual = 0.0136118, Final residual = 4.81125e-06, No Iterations 3
DILUPBiCG:  Solving for k, Initial residual = 0.0918299, Final residual = 4.58878e-07, No Iterations 5
ExecutionTime = 28.04 s  ClockTime = 28 s

Time = 7

DILUPBiCG:  Solving for Ux, Initial residual = 1.44297e-05, Final residual = 4.49125e-07, No Iterations 2
DILUPBiCG:  Solving for Uy, Initial residual = 4.11998e-06, Final residual = 4.11998e-06, No Iterations 0
DILUPBiCG:  Solving for Uz, Initial residual = 9.09205e-06, Final residual = 9.09205e-06, No Iterations 0
DICPCG:  Solving for p, Initial residual = 0.086234, Final residual = 0.00862172, No Iterations 299
DICPCG:  Solving for p, Initial residual = 0.00470721, Final residual = 0.000453734, No Iterations 5
DICPCG:  Solving for p, Initial residual = 0.000693207, Final residual = 6.77755e-05, No Iterations 53
time step continuity errors : sum local = 0.0302266, global = -0.000252424, cumulative = 0.00112388
DILUPBiCG:  Solving for epsilon, Initial residual = 0.0123293, Final residual = 4.03749e-06, No Iterations 3
DILUPBiCG:  Solving for k, Initial residual = 0.0752963, Final residual = 9.50234e-07, No Iterations 5
ExecutionTime = 32.23 s  ClockTime = 32 s

Time = 8

DILUPBiCG:  Solving for Ux, Initial residual = 1.82219e-05, Final residual = 3.52853e-06, No Iterations 1
DILUPBiCG:  Solving for Uy, Initial residual = 1.08138e-05, Final residual = 2.13839e-06, No Iterations 1
DILUPBiCG:  Solving for Uz, Initial residual = 1.8558e-05, Final residual = 4.44104e-06, No Iterations 1
DICPCG:  Solving for p, Initial residual = 0.0277949, Final residual = 0.00276043, No Iterations 65
DICPCG:  Solving for p, Initial residual = 0.00771327, Final residual = 0.000754035, No Iterations 83
DICPCG:  Solving for p, Initial residual = 0.00184879, Final residual = 0.000181525, No Iterations 274
time step continuity errors : sum local = 0.0207403, global = -4.20773e-05, cumulative = 0.0010818
DILUPBiCG:  Solving for epsilon, Initial residual = 0.0122887, Final residual = 7.37837e-06, No Iterations 3
DILUPBiCG:  Solving for k, Initial residual = 0.0631104, Final residual = 4.41791e-08, No Iterations 6
ExecutionTime = 36.99 s  ClockTime = 37 s

Time = 9

DILUPBiCG:  Solving for Ux, Initial residual = 6.09796e-06, Final residual = 6.09796e-06, No Iterations 0
DILUPBiCG:  Solving for Uy, Initial residual = 6.21714e-06, Final residual = 6.21714e-06, No Iterations 0
DILUPBiCG:  Solving for Uz, Initial residual = 8.43669e-06, Final residual = 8.43669e-06, No Iterations 0
DICPCG:  Solving for p, Initial residual = 0.0218139, Final residual = 0.00202019, No Iterations 292
DICPCG:  Solving for p, Initial residual = 0.0378875, Final residual = 0.00364202, No Iterations 19
DICPCG:  Solving for p, Initial residual = 0.00692716, Final residual = 0.000679188, No Iterations 38
time step continuity errors : sum local = 0.0165541, global = 0.000123932, cumulative = 0.00120573
DILUPBiCG:  Solving for epsilon, Initial residual = 0.011495, Final residual = 3.7041e-06, No Iterations 3
DILUPBiCG:  Solving for k, Initial residual = 0.0559969, Final residual = 4.83952e-08, No Iterations 6
ExecutionTime = 41.05 s  ClockTime = 41 s

Time = 10

DILUPBiCG:  Solving for Ux, Initial residual = 3.64086e-06, Final residual = 3.64086e-06, No Iterations 0
DILUPBiCG:  Solving for Uy, Initial residual = 3.74291e-06, Final residual = 3.74291e-06, No Iterations 0
DILUPBiCG:  Solving for Uz, Initial residual = 4.73886e-06, Final residual = 4.73886e-06, No Iterations 0
DICPCG:  Solving for p, Initial residual = 0.0197725, Final residual = 0.00187239, No Iterations 297
DICPCG:  Solving for p, Initial residual = 0.00922336, Final residual = 0.000899351, No Iterations 6
DICPCG:  Solving for p, Initial residual = 0.00140861, Final residual = 0.00013461, No Iterations 56
time step continuity errors : sum local = 0.0115994, global = 9.82779e-05, cumulative = 0.00130401
DILUPBiCG:  Solving for epsilon, Initial residual = 0.0107982, Final residual = 3.08974e-06, No Iterations 3
DILUPBiCG:  Solving for k, Initial residual = 0.0508793, Final residual = 2.97757e-07, No Iterations 5
ExecutionTime = 45.16 s  ClockTime = 45 s

Time = 11

DILUPBiCG:  Solving for Ux, Initial residual = 5.5234e-06, Final residual = 5.5234e-06, No Iterations 0
DILUPBiCG:  Solving for Uy, Initial residual = 1.35096e-06, Final residual = 1.35096e-06, No Iterations 0
DILUPBiCG:  Solving for Uz, Initial residual = 4.9917e-06, Final residual = 4.9917e-06, No Iterations 0
DICPCG:  Solving for p, Initial residual = 0.033594, Final residual = 0.00315871, No Iterations 300
DICPCG:  Solving for p, Initial residual = 0.00518981, Final residual = 0.000507496, No Iterations 4
DICPCG:  Solving for p, Initial residual = 0.000756648, Final residual = 7.4966e-05, No Iterations 57
time step continuity errors : sum local = 0.00776643, global = 9.50834e-05, cumulative = 0.00139909
DILUPBiCG:  Solving for epsilon, Initial residual = 0.0101007, Final residual = 2.83312e-06, No Iterations 3
DILUPBiCG:  Solving for k, Initial residual = 0.0468951, Final residual = 2.22188e-07, No Iterations 5
ExecutionTime = 49.28 s  ClockTime = 49 s

Time = 12

DILUPBiCG:  Solving for Ux, Initial residual = 6.9104e-06, Final residual = 6.9104e-06, No Iterations 0
DILUPBiCG:  Solving for Uy, Initial residual = 1.39517e-06, Final residual = 1.39517e-06, No Iterations 0
DILUPBiCG:  Solving for Uz, Initial residual = 6.22602e-06, Final residual = 6.22602e-06, No Iterations 0
DICPCG:  Solving for p, Initial residual = 0.052513, Final residual = 0.00511093, No Iterations 296
DICPCG:  Solving for p, Initial residual = 0.00392279, Final residual = 0.000372001, No Iterations 15
DICPCG:  Solving for p, Initial residual = 0.000692845, Final residual = 6.73408e-05, No Iterations 44
time step continuity errors : sum local = 0.00571389, global = 2.42331e-05, cumulative = 0.00142332
DILUPBiCG:  Solving for epsilon, Initial residual = 0.00949433, Final residual = 2.80112e-06, No Iterations 3
DILUPBiCG:  Solving for k, Initial residual = 0.043731, Final residual = 2.33909e-07, No Iterations 5
ExecutionTime = 53.39 s  ClockTime = 53 s

Time = 13

DILUPBiCG:  Solving for Ux, Initial residual = 6.57059e-06, Final residual = 6.57059e-06, No Iterations 0
DILUPBiCG:  Solving for Uy, Initial residual = 2.30028e-06, Final residual = 2.30028e-06, No Iterations 0
DILUPBiCG:  Solving for Uz, Initial residual = 6.34047e-06, Final residual = 6.34047e-06, No Iterations 0
DICPCG:  Solving for p, Initial residual = 0.0265147, Final residual = 0.00256267, No Iterations 68
DICPCG:  Solving for p, Initial residual = 0.00778338, Final residual = 0.000732866, No Iterations 73
DICPCG:  Solving for p, Initial residual = 0.00200768, Final residual = 0.000193903, No Iterations 252
time step continuity errors : sum local = 0.0073101, global = 3.35553e-05, cumulative = 0.00145688
DILUPBiCG:  Solving for epsilon, Initial residual = 0.00911273, Final residual = 4.04719e-06, No Iterations 3
DILUPBiCG:  Solving for k, Initial residual = 0.0411575, Final residual = 3.55305e-07, No Iterations 5
ExecutionTime = 57.79 s  ClockTime = 57 s

Time = 14

DILUPBiCG:  Solving for Ux, Initial residual = 4.79372e-06, Final residual = 4.79372e-06, No Iterations 0
DILUPBiCG:  Solving for Uy, Initial residual = 2.50639e-06, Final residual = 2.50639e-06, No Iterations 0
DILUPBiCG:  Solving for Uz, Initial residual = 5.03013e-06, Final residual = 5.03013e-06, No Iterations 0
DICPCG:  Solving for p, Initial residual = 0.0220707, Final residual = 0.00211693, No Iterations 100
DICPCG:  Solving for p, Initial residual = 0.00798058, Final residual = 0.000783707, No Iterations 274
DICPCG:  Solving for p, Initial residual = 0.0259145, Final residual = 0.00252984, No Iterations 7
time step continuity errors : sum local = 0.0146612, global = 0.000206967, cumulative = 0.00166385
DILUPBiCG:  Solving for epsilon, Initial residual = 0.0088836, Final residual = 1.06518e-06, No Iterations 4
DILUPBiCG:  Solving for k, Initial residual = 0.0388849, Final residual = 9.48821e-07, No Iterations 5
ExecutionTime = 62.11 s  ClockTime = 62 s

Time = 15

DILUPBiCG:  Solving for Ux, Initial residual = 2.96336e-06, Final residual = 2.96336e-06, No Iterations 0
DILUPBiCG:  Solving for Uy, Initial residual = 1.93243e-06, Final residual = 1.93243e-06, No Iterations 0
DILUPBiCG:  Solving for Uz, Initial residual = 3.35905e-06, Final residual = 3.35905e-06, No Iterations 0
DICPCG:  Solving for p, Initial residual = 0.0218964, Final residual = 0.0021554, No Iterations 295
DICPCG:  Solving for p, Initial residual = 0.0110275, Final residual = 0.00108285, No Iterations 25
DICPCG:  Solving for p, Initial residual = 0.00207948, Final residual = 0.000199976, No Iterations 47
time step continuity errors : sum local = 0.00594448, global = -5.42283e-05, cumulative = 0.00160962
DILUPBiCG:  Solving for epsilon, Initial residual = 0.00883328, Final residual = 3.54781e-06, No Iterations 3
DILUPBiCG:  Solving for k, Initial residual = 0.0367768, Final residual = 2.44272e-08, No Iterations 6
ExecutionTime = 66.35 s  ClockTime = 66 s

Time = 16

DILUPBiCG:  Solving for Ux, Initial residual = 2.63064e-06, Final residual = 2.63064e-06, No Iterations 0
DILUPBiCG:  Solving for Uy, Initial residual = 9.76394e-07, Final residual = 9.76394e-07, No Iterations 0
DILUPBiCG:  Solving for Uz, Initial residual = 2.83006e-06, Final residual = 2.83006e-06, No Iterations 0
DICPCG:  Solving for p, Initial residual = 0.032364, Final residual = 0.00311049, No Iterations 300
DICPCG:  Solving for p, Initial residual = 0.0057474, Final residual = 0.000551632, No Iterations 6
DICPCG:  Solving for p, Initial residual = 0.000851353, Final residual = 8.44041e-05, No Iterations 59
time step continuity errors : sum local = 0.00368929, global = -5.81342e-05, cumulative = 0.00155148
DILUPBiCG:  Solving for epsilon, Initial residual = 0.00879616, Final residual = 3.67316e-06, No Iterations 3
DILUPBiCG:  Solving for k, Initial residual = 0.0347716, Final residual = 2.59821e-08, No Iterations 6
ExecutionTime = 70.58 s  ClockTime = 70 s

Time = 17

DILUPBiCG:  Solving for Ux, Initial residual = 2.94232e-06, Final residual = 2.94232e-06, No Iterations 0
DILUPBiCG:  Solving for Uy, Initial residual = 5.14759e-07, Final residual = 5.14759e-07, No Iterations 0
DILUPBiCG:  Solving for Uz, Initial residual = 3.10985e-06, Final residual = 3.10985e-06, No Iterations 0
DICPCG:  Solving for p, Initial residual = 0.059234, Final residual = 0.00550311, No Iterations 297
DICPCG:  Solving for p, Initial residual = 0.00377379, Final residual = 0.000372758, No Iterations 8
DICPCG:  Solving for p, Initial residual = 0.000599972, Final residual = 5.71458e-05, No Iterations 56
time step continuity errors : sum local = 0.00238761, global = -2.21729e-05, cumulative = 0.00152931
DILUPBiCG:  Solving for epsilon, Initial residual = 0.00865634, Final residual = 3.49277e-06, No Iterations 3
DILUPBiCG:  Solving for k, Initial residual = 0.0328746, Final residual = 6.18368e-07, No Iterations 5
ExecutionTime = 74.71 s  ClockTime = 74 s

Time = 18

DILUPBiCG:  Solving for Ux, Initial residual = 2.80974e-06, Final residual = 2.80974e-06, No Iterations 0
DILUPBiCG:  Solving for Uy, Initial residual = 9.49174e-07, Final residual = 9.49174e-07, No Iterations 0
DILUPBiCG:  Solving for Uz, Initial residual = 3.26682e-06, Final residual = 3.26682e-06, No Iterations 0
DICPCG:  Solving for p, Initial residual = 0.0226803, Final residual = 0.00224395, No Iterations 45
DICPCG:  Solving for p, Initial residual = 0.00566397, Final residual = 0.00050511, No Iterations 278
DICPCG:  Solving for p, Initial residual = 0.001897, Final residual = 0.000184328, No Iterations 4
time step continuity errors : sum local = 0.00540461, global = -3.79012e-05, cumulative = 0.00149141
DILUPBiCG:  Solving for epsilon, Initial residual = 0.00846203, Final residual = 2.97922e-06, No Iterations 3
DILUPBiCG:  Solving for k, Initial residual = 0.03114, Final residual = 9.1534e-07, No Iterations 4
ExecutionTime = 78.54 s  ClockTime = 78 s

Time = 19

DILUPBiCG:  Solving for Ux, Initial residual = 2.29262e-06, Final residual = 2.29262e-06, No Iterations 0
DILUPBiCG:  Solving for Uy, Initial residual = 1.10946e-06, Final residual = 1.10946e-06, No Iterations 0
DILUPBiCG:  Solving for Uz, Initial residual = 2.97139e-06, Final residual = 2.97139e-06, No Iterations 0
DICPCG:  Solving for p, Initial residual = 0.0175886, Final residual = 0.00175752, No Iterations 95
DICPCG:  Solving for p, Initial residual = 0.00573604, Final residual = 0.000571877, No Iterations 265
DICPCG:  Solving for p, Initial residual = 0.00331598, Final residual = 0.00033054, No Iterations 32
time step continuity errors : sum local = 0.00438653, global = -2.0702e-05, cumulative = 0.00147071
DILUPBiCG:  Solving for epsilon, Initial residual = 0.00827848, Final residual = 2.89919e-06, No Iterations 3
DILUPBiCG:  Solving for k, Initial residual = 0.0296173, Final residual = 8.76379e-07, No Iterations 4
ExecutionTime = 82.91 s  ClockTime = 82 s

Time = 20

DILUPBiCG:  Solving for Ux, Initial residual = 1.82993e-06, Final residual = 1.82993e-06, No Iterations 0
DILUPBiCG:  Solving for Uy, Initial residual = 9.63126e-07, Final residual = 9.63126e-07, No Iterations 0
DILUPBiCG:  Solving for Uz, Initial residual = 2.51388e-06, Final residual = 2.51388e-06, No Iterations 0
DICPCG:  Solving for p, Initial residual = 0.016133, Final residual = 0.00157859, No Iterations 296
DICPCG:  Solving for p, Initial residual = 0.0285469, Final residual = 0.00281902, No Iterations 33
DICPCG:  Solving for p, Initial residual = 0.00614247, Final residual = 0.0006093, No Iterations 50
time step continuity errors : sum local = 0.00271577, global = 1.23119e-05, cumulative = 0.00148302
DILUPBiCG:  Solving for epsilon, Initial residual = 0.00812669, Final residual = 3.02339e-06, No Iterations 3
DILUPBiCG:  Solving for k, Initial residual = 0.0282903, Final residual = 1.77853e-07, No Iterations 5
ExecutionTime = 87.22 s  ClockTime = 87 s

forces porousforces write:
    sum of forces:
        pressure : (0 0 0)
        viscous  : (0 0 0)
        porous   : (86546.6 3.38643e-13 74646.3)
    sum of moments:
        pressure : (0 0 0)
        viscous  : (0 0 0)
        porous   : (66645.5 6416.33 -74596.8)

volFieldValue volFieldValue_0 write:
    volIntegrate(cz_solid_0) of U = (1.75149e-09 -4.47877e-09 -4.20063e-09)

surfaceFieldValue massFlowAtFilter_0 write:
    sum(fz_solid_0) of phi = 3.05011e-07

volFieldValue volFieldValue_1 write:
    volIntegrate(cz_solid_1) of U = (4.00397e-10 -4.04254e-09 -3.71877e-09)

surfaceFieldValue massFlowAtFilter_1 write:
    sum(fz_solid_1) of phi = 3.06208e-05

volFieldValue volFieldValue_2 write:
    volIntegrate(cz_solid_2) of U = (-6.61101e-10 -4.01791e-09 -3.17131e-09)

surfaceFieldValue massFlowAtFilter_2 write:
    sum(fz_solid_2) of phi = 1.45129e-06

volFieldValue volFieldValue_3 write:
    volIntegrate(cz_solid_3) of U = (-1.52906e-09 -3.89213e-09 -2.4147e-09)

surfaceFieldValue massFlowAtFilter_3 write:
    sum(fz_solid_3) of phi = -3.28638e-05

volFieldValue volFieldValue_4 write:
    volIntegrate(cz_solid_4) of U = (-2.28527e-09 -3.84645e-09 -1.65847e-09)

surfaceFieldValue massFlowAtFilter_4 write:
    sum(fz_solid_4) of phi = -2.50549e-05

volFieldValue volFieldValue_5 write:
    volIntegrate(cz_solid_5) of U = (-2.94446e-09 -3.84964e-09 -7.9872e-10)

surfaceFieldValue massFlowAtFilter_5 write:
    sum(fz_solid_5) of phi = -5.30651e-05

volFieldValue volFieldValue_6 write:
    volIntegrate(cz_solid_6) of U = (-3.5268e-09 -3.84811e-09 2.29118e-10)

surfaceFieldValue massFlowAtFilter_6 write:
    sum(fz_solid_6) of phi = -3.81701e-05

volFieldValue volFieldValue_7 write:
    volIntegrate(cz_solid_7) of U = (-3.85819e-09 -3.97664e-09 1.59141e-09)

surfaceFieldValue massFlowAtFilter_7 write:
    sum(fz_solid_7) of phi = -4.65006e-05

volFieldValue volFieldValue_8 write:
    volIntegrate(cz_solid_8) of U = (-3.77474e-09 -4.25735e-09 3.02652e-09)

surfaceFieldValue massFlowAtFilter_8 write:
    sum(fz_solid_8) of phi = 1.1148e-05

volFieldValue volFieldValue_9 write:
    volIntegrate(cz_solid_9) of U = (-3.09562e-09 -4.50869e-09 4.57635e-09)

surfaceFieldValue massFlowAtFilter_9 write:
    sum(fz_solid_9) of phi = -7.05357e-05

volFieldValue volFieldValue_10 write:
    volIntegrate(cz_solid_10) of U = (-1.62248e-09 -4.87764e-09 6.01134e-09)

surfaceFieldValue massFlowAtFilter_10 write:
    sum(fz_solid_10) of phi = 2.13211e-05

volFieldValue volFieldValue_11 write:
    volIntegrate(cz_solid_11) of U = (1.47514e-10 -5.12625e-09 6.91604e-09)

surfaceFieldValue massFlowAtFilter_11 write:
    sum(fz_solid_11) of phi = -4.98339e-05

volFieldValue volFieldValue_12 write:
    volIntegrate(cz_solid_12) of U = (2.55286e-09 -5.51769e-09 7.25846e-09)

surfaceFieldValue massFlowAtFilter_12 write:
    sum(fz_solid_12) of phi = -0.000184752

volFieldValue volFieldValue_13 write:
    volIntegrate(cz_solid_13) of U = (4.9997e-09 -5.92384e-09 6.58043e-09)

surfaceFieldValue massFlowAtFilter_13 write:
    sum(fz_solid_13) of phi = 5.79153e-05

volFieldValue volFieldValue_14 write:
    volIntegrate(cz_solid_14) of U = (7.07841e-09 -6.74018e-09 5.03556e-09)

surfaceFieldValue massFlowAtFilter_14 write:
    sum(fz_solid_14) of phi = -8.01632e-05

volFieldValue volFieldValue_15 write:
    volIntegrate(cz_solid_15) of U = (8.30225e-09 -7.00723e-09 2.634e-09)

surfaceFieldValue massFlowAtFilter_15 write:
    sum(fz_solid_15) of phi = 6.47412e-05

volFieldValue volFieldValue_16 write:
    volIntegrate(cz_solid_16) of U = (8.17653e-09 -6.82452e-09 5.98813e-11)

surfaceFieldValue massFlowAtFilter_16 write:
    sum(fz_solid_16) of phi = -0.00010257

volFieldValue volFieldValue_17 write:
    volIntegrate(cz_solid_17) of U = (7.02036e-09 -6.38822e-09 -2.16146e-09)

surfaceFieldValue massFlowAtFilter_17 write:
    sum(fz_solid_17) of phi = 9.22541e-06

volFieldValue volFieldValue_18 write:
    volIntegrate(cz_solid_18) of U = (5.40019e-09 -5.84965e-09 -3.50841e-09)

surfaceFieldValue massFlowAtFilter_18 write:
    sum(fz_solid_18) of phi = 7.09993e-05

volFieldValue volFieldValue_19 write:
    volIntegrate(cz_solid_19) of U = (3.50244e-09 -5.12448e-09 -4.21185e-09)

surfaceFieldValue massFlowAtFilter_19 write:
    sum(fz_solid_19) of phi = 6.78817e-05

volFieldValue volFieldValue_20 write:
    volIntegrate(cz_solid_20) of U = (1.43757e-09 -8.96228e-09 -3.10236e-09)

surfaceFieldValue massFlowAtFilter_20 write:
    sum(fz_solid_20) of phi = -1.42422e-05

volFieldValue volFieldValue_21 write:
    volIntegrate(cz_solid_21) of U = (3.57933e-10 -8.24475e-09 -2.76438e-09)

surfaceFieldValue massFlowAtFilter_21 write:
    sum(fz_solid_21) of phi = 1.90001e-05

volFieldValue volFieldValue_22 write:
    volIntegrate(cz_solid_22) of U = (-4.75912e-10 -8.16649e-09 -2.35749e-09)

surfaceFieldValue massFlowAtFilter_22 write:
    sum(fz_solid_22) of phi = 5.94677e-06

volFieldValue volFieldValue_23 write:
    volIntegrate(cz_solid_23) of U = (-1.15657e-09 -7.76391e-09 -1.77624e-09)

surfaceFieldValue massFlowAtFilter_23 write:
    sum(fz_solid_23) of phi = -1.66988e-05

volFieldValue volFieldValue_24 write:
    volIntegrate(cz_solid_24) of U = (-1.73467e-09 -7.72502e-09 -1.18507e-09)

surfaceFieldValue massFlowAtFilter_24 write:
    sum(fz_solid_24) of phi = -2.71256e-05

volFieldValue volFieldValue_25 write:
    volIntegrate(cz_solid_25) of U = (-2.25056e-09 -7.62339e-09 -5.25316e-10)

surfaceFieldValue massFlowAtFilter_25 write:
    sum(fz_solid_25) of phi = -2.11914e-06

volFieldValue volFieldValue_26 write:
    volIntegrate(cz_solid_26) of U = (-2.69315e-09 -7.59473e-09 2.77133e-10)

surfaceFieldValue massFlowAtFilter_26 write:
    sum(fz_solid_26) of phi = -5.79544e-06

volFieldValue volFieldValue_27 write:
    volIntegrate(cz_solid_27) of U = (-2.91173e-09 -7.93313e-09 1.35596e-09)

surfaceFieldValue massFlowAtFilter_27 write:
    sum(fz_solid_27) of phi = 4.00086e-06

volFieldValue volFieldValue_28 write:
    volIntegrate(cz_solid_28) of U = (-2.80041e-09 -8.45558e-09 2.47498e-09)

surfaceFieldValue massFlowAtFilter_28 write:
    sum(fz_solid_28) of phi = -1.21759e-05

volFieldValue volFieldValue_29 write:
    volIntegrate(cz_solid_29) of U = (-2.21429e-09 -9.07117e-09 3.65955e-09)

surfaceFieldValue massFlowAtFilter_29 write:
    sum(fz_solid_29) of phi = 5.26161e-05

volFieldValue volFieldValue_30 write:
    volIntegrate(cz_solid_30) of U = (-9.96932e-10 -1.0107e-08 4.72805e-09)

surfaceFieldValue massFlowAtFilter_30 write:
    sum(fz_solid_30) of phi = 2.86557e-05

volFieldValue volFieldValue_31 write:
    volIntegrate(cz_solid_31) of U = (3.98522e-10 -1.12715e-08 5.34301e-09)

surfaceFieldValue massFlowAtFilter_31 write:
    sum(fz_solid_31) of phi = -2.18967e-05

volFieldValue volFieldValue_32 write:
    volIntegrate(cz_solid_32) of U = (2.23133e-09 -1.29584e-08 5.53913e-09)

surfaceFieldValue massFlowAtFilter_32 write:
    sum(fz_solid_32) of phi = -3.88923e-05

volFieldValue volFieldValue_33 write:
    volIntegrate(cz_solid_33) of U = (4.06335e-09 -1.41074e-08 5.04861e-09)

surfaceFieldValue massFlowAtFilter_33 write:
    sum(fz_solid_33) of phi = 2.81347e-06

volFieldValue volFieldValue_34 write:
    volIntegrate(cz_solid_34) of U = (5.66733e-09 -1.5131e-08 4.0155e-09)

surfaceFieldValue massFlowAtFilter_34 write:
    sum(fz_solid_34) of phi = -4.87872e-05

volFieldValue volFieldValue_35 write:
    volIntegrate(cz_solid_35) of U = (6.66006e-09 -1.56074e-08 2.36221e-09)

surfaceFieldValue massFlowAtFilter_35 write:
    sum(fz_solid_35) of phi = 2.80103e-05

volFieldValue volFieldValue_36 write:
    volIntegrate(cz_solid_36) of U = (6.61255e-09 -1.4738e-08 4.76174e-10)

surfaceFieldValue massFlowAtFilter_36 write:
    sum(fz_solid_36) of phi = -1.55668e-05

volFieldValue volFieldValue_37 write:
    volIntegrate(cz_solid_37) of U = (5.71283e-09 -1.28805e-08 -1.28334e-09)

surfaceFieldValue massFlowAtFilter_37 write:
    sum(fz_solid_37) of phi = 7.91308e-05

volFieldValue volFieldValue_38 write:
    volIntegrate(cz_solid_38) of U = (4.41305e-09 -1.14348e-08 -2.43661e-09)

surfaceFieldValue massFlowAtFilter_38 write:
    sum(fz_solid_38) of phi = 5.85657e-05

volFieldValue volFieldValue_39 write:
    volIntegrate(cz_solid_39) of U = (2.86352e-09 -1.02504e-08 -3.07672e-09)

surfaceFieldValue massFlowAtFilter_39 write:
    sum(fz_solid_39) of phi = 3.01754e-05

volFieldValue volFieldValue_40 write:
    volIntegrate(cz_solid_40) of U = (7.93727e-10 -8.35745e-09 -1.30036e-09)

surfaceFieldValue massFlowAtFilter_40 write:
    sum(fz_solid_40) of phi = 1.81638e-05

volFieldValue volFieldValue_41 write:
    volIntegrate(cz_solid_41) of U = (2.44607e-10 -7.6944e-09 -1.22435e-09)

surfaceFieldValue massFlowAtFilter_41 write:
    sum(fz_solid_41) of phi = 3.01615e-05

volFieldValue volFieldValue_42 write:
    volIntegrate(cz_solid_42) of U = (-1.9463e-10 -7.665e-09 -1.05195e-09)

surfaceFieldValue massFlowAtFilter_42 write:
    sum(fz_solid_42) of phi = 3.2023e-06

volFieldValue volFieldValue_43 write:
    volIntegrate(cz_solid_43) of U = (-5.68698e-10 -7.30808e-09 -7.59717e-10)

surfaceFieldValue massFlowAtFilter_43 write:
    sum(fz_solid_43) of phi = 1.03428e-05

volFieldValue volFieldValue_44 write:
    volIntegrate(cz_solid_44) of U = (-9.17644e-10 -7.26411e-09 -4.49012e-10)

surfaceFieldValue massFlowAtFilter_44 write:
    sum(fz_solid_44) of phi = 1.95102e-06

volFieldValue volFieldValue_45 write:
    volIntegrate(cz_solid_45) of U = (-1.24746e-09 -7.12265e-09 -1.02199e-10)

surfaceFieldValue massFlowAtFilter_45 write:
    sum(fz_solid_45) of phi = 6.18764e-06

volFieldValue volFieldValue_46 write:
    volIntegrate(cz_solid_46) of U = (-1.54168e-09 -7.02206e-09 3.73879e-10)

surfaceFieldValue massFlowAtFilter_46 write:
    sum(fz_solid_46) of phi = 2.43652e-06

volFieldValue volFieldValue_47 write:
    volIntegrate(cz_solid_47) of U = (-1.66377e-09 -7.17259e-09 1.06152e-09)

surfaceFieldValue massFlowAtFilter_47 write:
    sum(fz_solid_47) of phi = 5.02056e-06

volFieldValue volFieldValue_48 write:
    volIntegrate(cz_solid_48) of U = (-1.56431e-09 -7.55985e-09 1.78189e-09)

surfaceFieldValue massFlowAtFilter_48 write:
    sum(fz_solid_48) of phi = -6.66177e-06

volFieldValue volFieldValue_49 write:
    volIntegrate(cz_solid_49) of U = (-1.12495e-09 -7.92196e-09 2.55712e-09)

surfaceFieldValue massFlowAtFilter_49 write:
    sum(fz_solid_49) of phi = 3.7565e-05

volFieldValue volFieldValue_50 write:
    volIntegrate(cz_solid_50) of U = (-2.22809e-10 -8.56606e-09 3.25425e-09)

surfaceFieldValue massFlowAtFilter_50 write:
    sum(fz_solid_50) of phi = 2.89027e-05

volFieldValue volFieldValue_51 write:
    volIntegrate(cz_solid_51) of U = (7.78447e-10 -9.50431e-09 3.62421e-09)

surfaceFieldValue massFlowAtFilter_51 write:
    sum(fz_solid_51) of phi = 1.09366e-05

volFieldValue volFieldValue_52 write:
    volIntegrate(cz_solid_52) of U = (2.10932e-09 -1.10488e-08 3.74508e-09)

surfaceFieldValue massFlowAtFilter_52 write:
    sum(fz_solid_52) of phi = 7.22498e-06

volFieldValue volFieldValue_53 write:
    volIntegrate(cz_solid_53) of U = (3.4911e-09 -1.30276e-08 3.51911e-09)

surfaceFieldValue massFlowAtFilter_53 write:
    sum(fz_solid_53) of phi = 4.80564e-05

volFieldValue volFieldValue_54 write:
    volIntegrate(cz_solid_54) of U = (4.87359e-09 -1.55526e-08 3.09192e-09)

surfaceFieldValue massFlowAtFilter_54 write:
    sum(fz_solid_54) of phi = -1.327e-05

volFieldValue volFieldValue_55 write:
    volIntegrate(cz_solid_55) of U = (5.78584e-09 -1.82092e-08 2.36513e-09)

surfaceFieldValue massFlowAtFilter_55 write:
    sum(fz_solid_55) of phi = 3.1136e-05

volFieldValue volFieldValue_56 write:
    volIntegrate(cz_solid_56) of U = (5.19834e-09 -1.81636e-08 1.73715e-09)

surfaceFieldValue massFlowAtFilter_56 write:
    sum(fz_solid_56) of phi = 3.64546e-05

volFieldValue volFieldValue_57 write:
    volIntegrate(cz_solid_57) of U = (3.52538e-09 -1.36862e-08 6.80101e-10)

surfaceFieldValue massFlowAtFilter_57 write:
    sum(fz_solid_57) of phi = 3.22213e-05

volFieldValue volFieldValue_58 write:
    volIntegrate(cz_solid_58) of U = (2.2876e-09 -1.07476e-08 -6.33996e-10)

surfaceFieldValue massFlowAtFilter_58 write:
    sum(fz_solid_58) of phi = 4.0158e-05

volFieldValue volFieldValue_59 write:
    volIntegrate(cz_solid_59) of U = (1.48941e-09 -9.54258e-09 -1.15945e-09)

surfaceFieldValue massFlowAtFilter_59 write:
    sum(fz_solid_59) of phi = 4.39476e-05

volFieldValue volFieldValue_60 write:
    volIntegrate(cz_solid_60) of U = (-3.98129e-11 -6.39634e-09 2.94255e-10)

surfaceFieldValue massFlowAtFilter_60 write:
    sum(fz_solid_60) of phi = -1.25388e-05

volFieldValue volFieldValue_61 write:
    volIntegrate(cz_solid_61) of U = (1.14495e-11 -5.63939e-09 4.68047e-11)

surfaceFieldValue massFlowAtFilter_61 write:
    sum(fz_solid_61) of phi = -7.04577e-06

volFieldValue volFieldValue_62 write:
    volIntegrate(cz_solid_62) of U = (-6.90828e-11 -5.45989e-09 -3.02833e-11)

surfaceFieldValue massFlowAtFilter_62 write:
    sum(fz_solid_62) of phi = -1.17861e-05

volFieldValue volFieldValue_63 write:
    volIntegrate(cz_solid_63) of U = (-2.14106e-10 -5.03643e-09 2.77703e-12)

surfaceFieldValue massFlowAtFilter_63 write:
    sum(fz_solid_63) of phi = -1.22649e-05

volFieldValue volFieldValue_64 write:
    volIntegrate(cz_solid_64) of U = (-4.1554e-10 -4.93846e-09 7.44511e-11)

surfaceFieldValue massFlowAtFilter_64 write:
    sum(fz_solid_64) of phi = -1.2203e-05

volFieldValue volFieldValue_65 write:
    volIntegrate(cz_solid_65) of U = (-6.31698e-10 -4.81017e-09 1.9279e-10)

surfaceFieldValue massFlowAtFilter_65 write:
    sum(fz_solid_65) of phi = -1.56824e-05

volFieldValue volFieldValue_66 write:
    volIntegrate(cz_solid_66) of U = (-8.43995e-10 -4.75013e-09 4.64703e-10)

surfaceFieldValue massFlowAtFilter_66 write:
    sum(fz_solid_66) of phi = -2.45594e-05

volFieldValue volFieldValue_67 write:
    volIntegrate(cz_solid_67) of U = (-9.25983e-10 -4.84615e-09 9.29045e-10)

surfaceFieldValue massFlowAtFilter_67 write:
    sum(fz_solid_67) of phi = -1.80736e-05

volFieldValue volFieldValue_68 write:
    volIntegrate(cz_solid_68) of U = (-8.42944e-10 -5.07223e-09 1.43435e-09)

surfaceFieldValue massFlowAtFilter_68 write:
    sum(fz_solid_68) of phi = -3.34438e-05

volFieldValue volFieldValue_69 write:
    volIntegrate(cz_solid_69) of U = (-4.84608e-10 -5.37126e-09 2.03595e-09)

surfaceFieldValue massFlowAtFilter_69 write:
    sum(fz_solid_69) of phi = -5.61777e-07

volFieldValue volFieldValue_70 write:
    volIntegrate(cz_solid_70) of U = (2.81883e-10 -5.90473e-09 2.62664e-09)

surfaceFieldValue massFlowAtFilter_70 write:
    sum(fz_solid_70) of phi = 7.08979e-06

volFieldValue volFieldValue_71 write:
    volIntegrate(cz_solid_71) of U = (1.18264e-09 -6.86093e-09 2.98274e-09)

surfaceFieldValue massFlowAtFilter_71 write:
    sum(fz_solid_71) of phi = -4.63961e-06

volFieldValue volFieldValue_72 write:
    volIntegrate(cz_solid_72) of U = (2.5579e-09 -8.51042e-09 3.16357e-09)

surfaceFieldValue massFlowAtFilter_72 write:
    sum(fz_solid_72) of phi = -2.03012e-05

volFieldValue volFieldValue_73 write:
    volIntegrate(cz_solid_73) of U = (4.30291e-09 -1.10024e-08 3.13058e-09)

surfaceFieldValue massFlowAtFilter_73 write:
    sum(fz_solid_73) of phi = 3.91389e-06

volFieldValue volFieldValue_74 write:
    volIntegrate(cz_solid_74) of U = (6.8115e-09 -1.51489e-08 2.89433e-09)

surfaceFieldValue massFlowAtFilter_74 write:
    sum(fz_solid_74) of phi = -7.51582e-05

volFieldValue volFieldValue_75 write:
    volIntegrate(cz_solid_75) of U = (9.93688e-09 -2.25721e-08 1.87958e-09)

surfaceFieldValue massFlowAtFilter_75 write:
    sum(fz_solid_75) of phi = -6.85965e-05

volFieldValue volFieldValue_76 write:
    volIntegrate(cz_solid_76) of U = (1.11493e-08 -3.35497e-08 1.83246e-09)

surfaceFieldValue massFlowAtFilter_76 write:
    sum(fz_solid_76) of phi = -8.31291e-05

volFieldValue volFieldValue_77 write:
    volIntegrate(cz_solid_77) of U = (2.74284e-09 -2.66019e-08 8.77466e-09)

surfaceFieldValue massFlowAtFilter_77 write:
    sum(fz_solid_77) of phi = -0.000110768

volFieldValue volFieldValue_78 write:
    volIntegrate(cz_solid_78) of U = (-2.76425e-09 -1.01871e-08 1.12059e-09)

surfaceFieldValue massFlowAtFilter_78 write:
    sum(fz_solid_78) of phi = -3.99953e-05

volFieldValue volFieldValue_79 write:
    volIntegrate(cz_solid_79) of U = (-6.07251e-10 -7.39205e-09 6.54162e-10)

surfaceFieldValue massFlowAtFilter_79 write:
    sum(fz_solid_79) of phi = -1.56573e-05

volFieldValue volFieldValue_80 write:
    volIntegrate(cz_solid_80) of U = (-5.7425e-10 -3.19102e-09 1.15887e-09)

surfaceFieldValue massFlowAtFilter_80 write:
    sum(fz_solid_80) of phi = -3.90997e-06

volFieldValue volFieldValue_81 write:
    volIntegrate(cz_solid_81) of U = (-1.69237e-10 -2.70548e-09 7.39389e-10)

surfaceFieldValue massFlowAtFilter_81 write:
    sum(fz_solid_81) of phi = -1.74287e-06

volFieldValue volFieldValue_82 write:
    volIntegrate(cz_solid_82) of U = (-5.86562e-11 -2.43895e-09 5.00717e-10)

surfaceFieldValue massFlowAtFilter_82 write:
    sum(fz_solid_82) of phi = 3.89828e-06

volFieldValue volFieldValue_83 write:
    volIntegrate(cz_solid_83) of U = (-8.36933e-11 -2.18136e-09 3.90853e-10)

surfaceFieldValue massFlowAtFilter_83 write:
    sum(fz_solid_83) of phi = -8.90478e-06

volFieldValue volFieldValue_84 write:
    volIntegrate(cz_solid_84) of U = (-2.11163e-10 -2.06007e-09 3.40256e-10)

surfaceFieldValue massFlowAtFilter_84 write:
    sum(fz_solid_84) of phi = 1.47504e-05

volFieldValue volFieldValue_85 write:
    volIntegrate(cz_solid_85) of U = (-3.55889e-10 -1.9426e-09 3.6565e-10)

surfaceFieldValue massFlowAtFilter_85 write:
    sum(fz_solid_85) of phi = -1.62555e-05

volFieldValue volFieldValue_86 write:
    volIntegrate(cz_solid_86) of U = (-5.06694e-10 -1.85378e-09 5.49469e-10)

surfaceFieldValue massFlowAtFilter_86 write:
    sum(fz_solid_86) of phi = -8.14495e-06

volFieldValue volFieldValue_87 write:
    volIntegrate(cz_solid_87) of U = (-5.44481e-10 -1.9078e-09 9.08111e-10)

surfaceFieldValue massFlowAtFilter_87 write:
    sum(fz_solid_87) of phi = -8.60699e-06

volFieldValue volFieldValue_88 write:
    volIntegrate(cz_solid_88) of U = (-4.52691e-10 -2.06358e-09 1.30096e-09)

surfaceFieldValue massFlowAtFilter_88 write:
    sum(fz_solid_88) of phi = -1.83338e-05

volFieldValue volFieldValue_89 write:
    volIntegrate(cz_solid_89) of U = (-1.13986e-10 -2.19119e-09 1.81475e-09)

surfaceFieldValue massFlowAtFilter_89 write:
    sum(fz_solid_89) of phi = -2.15255e-05

volFieldValue volFieldValue_90 write:
    volIntegrate(cz_solid_90) of U = (6.07394e-10 -2.45656e-09 2.36809e-09)

surfaceFieldValue massFlowAtFilter_90 write:
    sum(fz_solid_90) of phi = 2.16462e-05

volFieldValue volFieldValue_91 write:
    volIntegrate(cz_solid_91) of U = (1.52861e-09 -2.8454e-09 2.70561e-09)

surfaceFieldValue massFlowAtFilter_91 write:
    sum(fz_solid_91) of phi = 6.92972e-06

volFieldValue volFieldValue_92 write:
    volIntegrate(cz_solid_92) of U = (3.06395e-09 -3.50032e-09 2.81473e-09)

surfaceFieldValue massFlowAtFilter_92 write:
    sum(fz_solid_92) of phi = 4.8923e-05

volFieldValue volFieldValue_93 write:
    volIntegrate(cz_solid_93) of U = (5.19471e-09 -4.81431e-09 2.67727e-09)

surfaceFieldValue massFlowAtFilter_93 write:
    sum(fz_solid_93) of phi = 5.41391e-05

volFieldValue volFieldValue_94 write:
    volIntegrate(cz_solid_94) of U = (8.65066e-09 -6.57216e-09 2.31828e-09)

surfaceFieldValue massFlowAtFilter_94 write:
    sum(fz_solid_94) of phi = 0.000134807

volFieldValue volFieldValue_95 write:
[...]

volFieldValue volFieldValue_2 write:
    volIntegrate(cz_solid_2) of U = (-1.01413e-09 -5.84127e-08 4.60823e-10)

surfaceFieldValue massFlowAtFilter_2 write:
    sum(fz_solid_2) of phi = 0.000158858

volFieldValue volFieldValue_3 write:
    volIntegrate(cz_solid_3) of U = (-1.46603e-09 -9.62123e-08 8.56966e-10)

surfaceFieldValue massFlowAtFilter_3 write:
    sum(fz_solid_3) of phi = -0.000151579

volFieldValue volFieldValue_4 write:
    volIntegrate(cz_solid_4) of U = (-1.63074e-09 -1.33577e-07 1.65382e-09)

surfaceFieldValue massFlowAtFilter_4 write:
    sum(fz_solid_4) of phi = 8.95343e-05

volFieldValue volFieldValue_5 write:
    volIntegrate(cz_solid_5) of U = (-1.45782e-09 -1.73698e-07 1.82758e-09)

surfaceFieldValue massFlowAtFilter_5 write:
    sum(fz_solid_5) of phi = -0.000510888

volFieldValue volFieldValue_6 write:
    volIntegrate(cz_solid_6) of U = (-1.35877e-09 -2.01851e-07 1.48931e-09)

surfaceFieldValue massFlowAtFilter_6 write:
    sum(fz_solid_6) of phi = 2.46649e-05

volFieldValue volFieldValue_7 write:
    volIntegrate(cz_solid_7) of U = (-1.25819e-09 -2.39672e-07 1.18931e-09)

surfaceFieldValue massFlowAtFilter_7 write:
    sum(fz_solid_7) of phi = 7.08602e-05

volFieldValue volFieldValue_8 write:
    volIntegrate(cz_solid_8) of U = (-8.93676e-10 -2.28591e-07 1.24538e-09)

surfaceFieldValue massFlowAtFilter_8 write:
    sum(fz_solid_8) of phi = -0.000220956

volFieldValue volFieldValue_9 write:
    volIntegrate(cz_solid_9) of U = (-7.71461e-10 -1.89484e-07 1.38892e-09)

surfaceFieldValue massFlowAtFilter_9 write:
    sum(fz_solid_9) of phi = -2.51115e-05

volFieldValue volFieldValue_10 write:
    volIntegrate(cz_solid_10) of U = (-4.37644e-10 -1.32837e-07 1.46522e-09)

surfaceFieldValue massFlowAtFilter_10 write:
    sum(fz_solid_10) of phi = 6.12365e-05

volFieldValue volFieldValue_11 write:
    volIntegrate(cz_solid_11) of U = (7.36594e-11 -7.3577e-08 1.36334e-09)

surfaceFieldValue massFlowAtFilter_11 write:
    sum(fz_solid_11) of phi = 0.000109459

volFieldValue volFieldValue_12 write:
    volIntegrate(cz_solid_12) of U = (5.44473e-10 -4.13778e-08 1.16146e-09)

surfaceFieldValue massFlowAtFilter_12 write:
    sum(fz_solid_12) of phi = -0.00019048

volFieldValue volFieldValue_13 write:
    volIntegrate(cz_solid_13) of U = (9.05897e-10 -3.1678e-08 7.41686e-10)

surfaceFieldValue massFlowAtFilter_13 write:
    sum(fz_solid_13) of phi = 0.0001913

volFieldValue volFieldValue_14 write:
    volIntegrate(cz_solid_14) of U = (9.46543e-10 -2.46292e-08 1.37436e-10)

surfaceFieldValue massFlowAtFilter_14 write:
    sum(fz_solid_14) of phi = -2.20291e-05

volFieldValue volFieldValue_15 write:
    volIntegrate(cz_solid_15) of U = (5.5126e-10 4.22161e-09 -2.54423e-10)

surfaceFieldValue massFlowAtFilter_15 write:
    sum(fz_solid_15) of phi = -0.000105503

volFieldValue volFieldValue_16 write:
    volIntegrate(cz_solid_16) of U = (3.2103e-10 3.48692e-08 -2.57456e-10)

surfaceFieldValue massFlowAtFilter_16 write:
    sum(fz_solid_16) of phi = -0.000124146

volFieldValue volFieldValue_17 write:
    volIntegrate(cz_solid_17) of U = (2.25654e-10 3.09526e-08 -3.10209e-10)

surfaceFieldValue massFlowAtFilter_17 write:
    sum(fz_solid_17) of phi = -7.25049e-05

volFieldValue volFieldValue_18 write:
    volIntegrate(cz_solid_18) of U = (-6.24578e-11 5.09609e-09 -3.89751e-10)

surfaceFieldValue massFlowAtFilter_18 write:
    sum(fz_solid_18) of phi = -0.000335368

volFieldValue volFieldValue_19 write:
    volIntegrate(cz_solid_19) of U = (-4.46619e-10 -1.06478e-08 -2.66951e-10)

surfaceFieldValue massFlowAtFilter_19 write:
    sum(fz_solid_19) of phi = -0.000160366

volFieldValue volFieldValue_20 write:
    volIntegrate(cz_solid_20) of U = (-2.2276e-10 -3.73955e-08 5.45179e-10)

surfaceFieldValue massFlowAtFilter_20 write:
    sum(fz_solid_20) of phi = -6.11141e-05

volFieldValue volFieldValue_21 write:
    volIntegrate(cz_solid_21) of U = (-4.02156e-10 -5.61597e-08 4.34068e-10)

surfaceFieldValue massFlowAtFilter_21 write:
    sum(fz_solid_21) of phi = 0.000161236

volFieldValue volFieldValue_22 write:
    volIntegrate(cz_solid_22) of U = (-5.24278e-10 -8.29478e-08 9.62087e-10)

surfaceFieldValue massFlowAtFilter_22 write:
    sum(fz_solid_22) of phi = -7.09844e-05

volFieldValue volFieldValue_23 write:
    volIntegrate(cz_solid_23) of U = (-8.21508e-10 -1.29932e-07 1.67111e-09)

surfaceFieldValue massFlowAtFilter_23 write:
    sum(fz_solid_23) of phi = -6.27826e-05

volFieldValue volFieldValue_24 write:
    volIntegrate(cz_solid_24) of U = (-4.86004e-10 -1.86231e-07 3.0508e-09)

surfaceFieldValue massFlowAtFilter_24 write:
    sum(fz_solid_24) of phi = -0.00038691

volFieldValue volFieldValue_25 write:
    volIntegrate(cz_solid_25) of U = (4.96614e-10 -2.44504e-07 3.21049e-09)

surfaceFieldValue massFlowAtFilter_25 write:
    sum(fz_solid_25) of phi = -0.000544924

volFieldValue volFieldValue_26 write:
    volIntegrate(cz_solid_26) of U = (9.06364e-10 -2.81776e-07 2.51033e-09)

surfaceFieldValue massFlowAtFilter_26 write:
    sum(fz_solid_26) of phi = 0.000353843

volFieldValue volFieldValue_27 write:
    volIntegrate(cz_solid_27) of U = (-4.53009e-11 -3.43376e-07 2.02947e-09)

surfaceFieldValue massFlowAtFilter_27 write:
    sum(fz_solid_27) of phi = 0.00058249

volFieldValue volFieldValue_28 write:
    volIntegrate(cz_solid_28) of U = (2.95865e-10 -3.574e-07 1.77325e-09)

surfaceFieldValue massFlowAtFilter_28 write:
    sum(fz_solid_28) of phi = -6.32135e-05

volFieldValue volFieldValue_29 write:
    volIntegrate(cz_solid_29) of U = (-1.24011e-10 -3.1183e-07 1.26126e-09)

surfaceFieldValue massFlowAtFilter_29 write:
    sum(fz_solid_29) of phi = 7.15326e-05

volFieldValue volFieldValue_30 write:
    volIntegrate(cz_solid_30) of U = (-2.393e-10 -2.16338e-07 1.16589e-09)

surfaceFieldValue massFlowAtFilter_30 write:
    sum(fz_solid_30) of phi = -1.27962e-05

volFieldValue volFieldValue_31 write:
    volIntegrate(cz_solid_31) of U = (5.95324e-11 -1.46321e-07 1.16018e-09)

surfaceFieldValue massFlowAtFilter_31 write:
    sum(fz_solid_31) of phi = -1.70517e-05

volFieldValue volFieldValue_32 write:
    volIntegrate(cz_solid_32) of U = (4.36925e-10 -1.12623e-07 1.05335e-09)

surfaceFieldValue massFlowAtFilter_32 write:
    sum(fz_solid_32) of phi = -3.26981e-05

volFieldValue volFieldValue_33 write:
    volIntegrate(cz_solid_33) of U = (7.16302e-10 -7.74434e-08 7.6414e-10)

surfaceFieldValue massFlowAtFilter_33 write:
    sum(fz_solid_33) of phi = -1.71708e-05

volFieldValue volFieldValue_34 write:
    volIntegrate(cz_solid_34) of U = (7.84998e-10 -3.82265e-08 3.8886e-10)

surfaceFieldValue massFlowAtFilter_34 write:
    sum(fz_solid_34) of phi = -3.23841e-05

volFieldValue volFieldValue_35 write:
    volIntegrate(cz_solid_35) of U = (6.32947e-10 -9.3992e-09 5.96635e-11)

surfaceFieldValue massFlowAtFilter_35 write:
    sum(fz_solid_35) of phi = 3.44846e-06

volFieldValue volFieldValue_36 write:
    volIntegrate(cz_solid_36) of U = (4.17896e-10 2.90946e-09 -1.77633e-10)

surfaceFieldValue massFlowAtFilter_36 write:
    sum(fz_solid_36) of phi = -2.0888e-05

volFieldValue volFieldValue_37 write:
    volIntegrate(cz_solid_37) of U = (1.98806e-10 -5.21643e-09 -2.42943e-10)

surfaceFieldValue massFlowAtFilter_37 write:
    sum(fz_solid_37) of phi = 2.69984e-07

volFieldValue volFieldValue_38 write:
    volIntegrate(cz_solid_38) of U = (-1.84064e-11 -1.94598e-08 -1.12233e-10)

surfaceFieldValue massFlowAtFilter_38 write:
    sum(fz_solid_38) of phi = -9.11372e-05

volFieldValue volFieldValue_39 write:
    volIntegrate(cz_solid_39) of U = (-1.88806e-10 -3.17772e-08 1.96783e-10)

surfaceFieldValue massFlowAtFilter_39 write:
    sum(fz_solid_39) of phi = -5.75167e-05

volFieldValue volFieldValue_40 write:
    volIntegrate(cz_solid_40) of U = (-2.4351e-10 -2.22868e-08 6.5468e-10)

surfaceFieldValue massFlowAtFilter_40 write:
    sum(fz_solid_40) of phi = -4.31505e-05

volFieldValue volFieldValue_41 write:
    volIntegrate(cz_solid_41) of U = (-4.34201e-10 -4.38424e-08 5.28802e-10)

surfaceFieldValue massFlowAtFilter_41 write:
    sum(fz_solid_41) of phi = 0.000191067

volFieldValue volFieldValue_42 write:
    volIntegrate(cz_solid_42) of U = (-5.31008e-10 -6.85471e-08 1.4057e-09)

surfaceFieldValue massFlowAtFilter_42 write:
    sum(fz_solid_42) of phi = 6.85242e-05

volFieldValue volFieldValue_43 write:
    volIntegrate(cz_solid_43) of U = (-8.7915e-10 -1.17075e-07 2.56863e-09)

surfaceFieldValue massFlowAtFilter_43 write:
    sum(fz_solid_43) of phi = 0.000346749

volFieldValue volFieldValue_44 write:
    volIntegrate(cz_solid_44) of U = (-1.10725e-10 -1.83929e-07 4.81675e-09)

surfaceFieldValue massFlowAtFilter_44 write:
    sum(fz_solid_44) of phi = -0.000167622

volFieldValue volFieldValue_45 write:
    volIntegrate(cz_solid_45) of U = (1.69925e-09 -2.50847e-07 5.14757e-09)

surfaceFieldValue massFlowAtFilter_45 write:
    sum(fz_solid_45) of phi = -0.000276275

volFieldValue volFieldValue_46 write:
    volIntegrate(cz_solid_46) of U = (2.69696e-09 -2.99357e-07 4.04427e-09)

surfaceFieldValue massFlowAtFilter_46 write:
    sum(fz_solid_46) of phi = 0.000581517

volFieldValue volFieldValue_47 write:
    volIntegrate(cz_solid_47) of U = (1.04997e-09 -3.74721e-07 3.24034e-09)

surfaceFieldValue massFlowAtFilter_47 write:
    sum(fz_solid_47) of phi = 0.000682014

volFieldValue volFieldValue_48 write:
    volIntegrate(cz_solid_48) of U = (1.90812e-09 -4.03956e-07 2.45274e-09)

surfaceFieldValue massFlowAtFilter_48 write:
    sum(fz_solid_48) of phi = -5.73079e-06

volFieldValue volFieldValue_49 write:
    volIntegrate(cz_solid_49) of U = (9.33668e-10 -3.62114e-07 8.14348e-10)

surfaceFieldValue massFlowAtFilter_49 write:
    sum(fz_solid_49) of phi = -0.000163996

volFieldValue volFieldValue_50 write:
    volIntegrate(cz_solid_50) of U = (4.63597e-10 -2.42696e-07 -9.58812e-11)

surfaceFieldValue massFlowAtFilter_50 write:
    sum(fz_solid_50) of phi = -9.88084e-05

volFieldValue volFieldValue_51 write:
    volIntegrate(cz_solid_51) of U = (4.33162e-10 -1.33042e-07 -3.54104e-11)

surfaceFieldValue massFlowAtFilter_51 write:
    sum(fz_solid_51) of phi = -1.18843e-05

volFieldValue volFieldValue_52 write:
    volIntegrate(cz_solid_52) of U = (3.33611e-10 -7.15135e-08 2.34907e-10)

surfaceFieldValue massFlowAtFilter_52 write:
    sum(fz_solid_52) of phi = -5.37084e-05

volFieldValue volFieldValue_53 write:
    volIntegrate(cz_solid_53) of U = (2.84247e-10 -1.39822e-08 2.30163e-10)

surfaceFieldValue massFlowAtFilter_53 write:
    sum(fz_solid_53) of phi = -7.09595e-05

volFieldValue volFieldValue_54 write:
    volIntegrate(cz_solid_54) of U = (1.31914e-10 4.69773e-08 5.30513e-11)

surfaceFieldValue massFlowAtFilter_54 write:
    sum(fz_solid_54) of phi = -4.74565e-05

volFieldValue volFieldValue_55 write:
    volIntegrate(cz_solid_55) of U = (-1.27277e-10 9.51179e-08 -1.4575e-10)

surfaceFieldValue massFlowAtFilter_55 write:
    sum(fz_solid_55) of phi = -3.63234e-05

volFieldValue volFieldValue_56 write:
    volIntegrate(cz_solid_56) of U = (-3.47589e-10 1.03223e-07 -2.52566e-10)

surfaceFieldValue massFlowAtFilter_56 write:
    sum(fz_solid_56) of phi = -3.78637e-05

volFieldValue volFieldValue_57 write:
    volIntegrate(cz_solid_57) of U = (-5.03965e-10 6.60345e-08 -3.72643e-11)

surfaceFieldValue massFlowAtFilter_57 write:
    sum(fz_solid_57) of phi = -3.1244e-05

volFieldValue volFieldValue_58 write:
    volIntegrate(cz_solid_58) of U = (-4.26045e-10 2.24804e-08 2.28807e-10)

surfaceFieldValue massFlowAtFilter_58 write:
    sum(fz_solid_58) of phi = -0.000160356

volFieldValue volFieldValue_59 write:
    volIntegrate(cz_solid_59) of U = (-3.0987e-10 -6.74492e-09 4.57526e-10)

surfaceFieldValue massFlowAtFilter_59 write:
    sum(fz_solid_59) of phi = 5.08627e-05

volFieldValue volFieldValue_60 write:
    volIntegrate(cz_solid_60) of U = (-5.20561e-10 1.46241e-08 9.09009e-10)

surfaceFieldValue massFlowAtFilter_60 write:
    sum(fz_solid_60) of phi = -0.000238706

volFieldValue volFieldValue_61 write:
    volIntegrate(cz_solid_61) of U = (-7.41628e-10 -9.78043e-09 7.74198e-10)

surfaceFieldValue massFlowAtFilter_61 write:
    sum(fz_solid_61) of phi = -1.56413e-05

volFieldValue volFieldValue_62 write:
    volIntegrate(cz_solid_62) of U = (-8.76018e-10 -3.31513e-08 2.11478e-09)

surfaceFieldValue massFlowAtFilter_62 write:
    sum(fz_solid_62) of phi = 6.21607e-05

volFieldValue volFieldValue_63 write:
    volIntegrate(cz_solid_63) of U = (-1.35199e-09 -8.06017e-08 3.73646e-09)

surfaceFieldValue massFlowAtFilter_63 write:
    sum(fz_solid_63) of phi = 0.000232445

volFieldValue volFieldValue_64 write:
    volIntegrate(cz_solid_64) of U = (-2.14357e-10 -1.28967e-07 7.15584e-09)

surfaceFieldValue massFlowAtFilter_64 write:
    sum(fz_solid_64) of phi = -0.00018969

volFieldValue volFieldValue_65 write:
    volIntegrate(cz_solid_65) of U = (2.71571e-09 -1.7309e-07 7.83277e-09)

surfaceFieldValue massFlowAtFilter_65 write:
    sum(fz_solid_65) of phi = -0.000805208

volFieldValue volFieldValue_66 write:
    volIntegrate(cz_solid_66) of U = (4.94043e-09 -2.03018e-07 6.31099e-09)

surfaceFieldValue massFlowAtFilter_66 write:
    sum(fz_solid_66) of phi = 0.000491486

volFieldValue volFieldValue_67 write:
    volIntegrate(cz_solid_67) of U = (3.1187e-09 -2.37501e-07 4.84609e-09)

surfaceFieldValue massFlowAtFilter_67 write:
    sum(fz_solid_67) of phi = 0.000442443

volFieldValue volFieldValue_68 write:
    volIntegrate(cz_solid_68) of U = (4.89216e-09 -2.57175e-07 3.5173e-09)

surfaceFieldValue massFlowAtFilter_68 write:
    sum(fz_solid_68) of phi = -0.000708176

volFieldValue volFieldValue_69 write:
    volIntegrate(cz_solid_69) of U = (3.04832e-09 -2.39203e-07 3.68207e-10)

surfaceFieldValue massFlowAtFilter_69 write:
    sum(fz_solid_69) of phi = -0.00053706

volFieldValue volFieldValue_70 write:
    volIntegrate(cz_solid_70) of U = (1.5392e-09 -1.98476e-07 -9.26955e-10)

surfaceFieldValue massFlowAtFilter_70 write:
    sum(fz_solid_70) of phi = -0.000285165

volFieldValue volFieldValue_71 write:
    volIntegrate(cz_solid_71) of U = (8.04864e-10 -1.68176e-07 -8.56378e-10)

surfaceFieldValue massFlowAtFilter_71 write:
    sum(fz_solid_71) of phi = -1.02672e-05

volFieldValue volFieldValue_72 write:
    volIntegrate(cz_solid_72) of U = (-7.71238e-11 -1.16994e-07 -6.7499e-10)

surfaceFieldValue massFlowAtFilter_72 write:
    sum(fz_solid_72) of phi = 6.23999e-05

volFieldValue volFieldValue_73 write:
    volIntegrate(cz_solid_73) of U = (-9.23449e-10 -9.07441e-09 -6.91475e-10)

surfaceFieldValue massFlowAtFilter_73 write:
    sum(fz_solid_73) of phi = -5.4503e-05

volFieldValue volFieldValue_74 write:
    volIntegrate(cz_solid_74) of U = (-1.36197e-09 1.06302e-07 -6.39851e-10)

surfaceFieldValue massFlowAtFilter_74 write:
    sum(fz_solid_74) of phi = 0.000423587

volFieldValue volFieldValue_75 write:
    volIntegrate(cz_solid_75) of U = (-1.22574e-09 1.75056e-07 -8.83543e-10)

surfaceFieldValue massFlowAtFilter_75 write:
    sum(fz_solid_75) of phi = 5.35344e-05

volFieldValue volFieldValue_76 write:
    volIntegrate(cz_solid_76) of U = (-9.38605e-10 1.19377e-07 -6.83918e-10)

surfaceFieldValue massFlowAtFilter_76 write:
    sum(fz_solid_76) of phi = -9.7898e-05

volFieldValue volFieldValue_77 write:
    volIntegrate(cz_solid_77) of U = (-6.36395e-10 7.7758e-08 -2.27283e-10)

surfaceFieldValue massFlowAtFilter_77 write:
    sum(fz_solid_77) of phi = 9.29738e-06

volFieldValue volFieldValue_78 write:
    volIntegrate(cz_solid_78) of U = (-5.87356e-10 6.45873e-08 3.40658e-11)

surfaceFieldValue massFlowAtFilter_78 write:
    sum(fz_solid_78) of phi = -0.000236665

volFieldValue volFieldValue_79 write:
    volIntegrate(cz_solid_79) of U = (-7.02945e-10 3.56492e-08 5.65481e-10)

surfaceFieldValue massFlowAtFilter_79 write:
    sum(fz_solid_79) of phi = -3.61348e-05

volFieldValue volFieldValue_80 write:
    volIntegrate(cz_solid_80) of U = (-5.86046e-10 -2.12563e-08 5.05016e-10)

surfaceFieldValue massFlowAtFilter_80 write:
    sum(fz_solid_80) of phi = -9.43796e-05

volFieldValue volFieldValue_81 write:
    volIntegrate(cz_solid_81) of U = (-9.7927e-10 -4.47964e-08 5.49436e-10)

surfaceFieldValue massFlowAtFilter_81 write:
    sum(fz_solid_81) of phi = -0.000106004

volFieldValue volFieldValue_82 write:
    volIntegrate(cz_solid_82) of U = (-1.46343e-09 -5.63397e-08 2.15578e-09)

surfaceFieldValue massFlowAtFilter_82 write:
    sum(fz_solid_82) of phi = 9.73899e-05

volFieldValue volFieldValue_83 write:
    volIntegrate(cz_solid_83) of U = (-2.11535e-09 -6.38247e-08 4.22719e-09)

surfaceFieldValue massFlowAtFilter_83 write:
    sum(fz_solid_83) of phi = -6.93783e-05

volFieldValue volFieldValue_84 write:
    volIntegrate(cz_solid_84) of U = (-8.8891e-10 -6.83404e-08 8.65652e-09)

surfaceFieldValue massFlowAtFilter_84 write:
    sum(fz_solid_84) of phi = 0.000487753

volFieldValue volFieldValue_85 write:
    volIntegrate(cz_solid_85) of U = (3.04593e-09 -6.53937e-08 9.69183e-09)

surfaceFieldValue massFlowAtFilter_85 write:
    sum(fz_solid_85) of phi = -0.000971145

volFieldValue volFieldValue_86 write:
    volIntegrate(cz_solid_86) of U = (6.0107e-09 -6.79308e-08 7.86602e-09)

surfaceFieldValue massFlowAtFilter_86 write:
    sum(fz_solid_86) of phi = -0.000281512

volFieldValue volFieldValue_87 write:
    volIntegrate(cz_solid_87) of U = (4.83513e-09 -1.07265e-08 6.11165e-09)

surfaceFieldValue massFlowAtFilter_87 write:
    sum(fz_solid_87) of phi = 0.000686743

volFieldValue volFieldValue_88 write:
    volIntegrate(cz_solid_88) of U = (8.22487e-09 -8.92638e-10 5.21176e-09)

surfaceFieldValue massFlowAtFilter_88 write:
    sum(fz_solid_88) of phi = -0.00179778

volFieldValue volFieldValue_89 write:
    volIntegrate(cz_solid_89) of U = (6.94442e-09 -9.90343e-09 1.90939e-10)

surfaceFieldValue massFlowAtFilter_89 write:
    sum(fz_solid_89) of phi = -0.000778538

volFieldValue volFieldValue_90 write:
    volIntegrate(cz_solid_90) of U = (3.56692e-09 -5.65892e-08 -2.11569e-09)

surfaceFieldValue massFlowAtFilter_90 write:
    sum(fz_solid_90) of phi = -0.000470841

volFieldValue volFieldValue_91 write:
    volIntegrate(cz_solid_91) of U = (1.64165e-09 -9.45553e-08 -1.18506e-09)

surfaceFieldValue massFlowAtFilter_91 write:
    sum(fz_solid_91) of phi = 0.000184694

volFieldValue volFieldValue_92 write:
    volIntegrate(cz_solid_92) of U = (8.81702e-10 -8.96721e-08 -1.16292e-09)

surfaceFieldValue massFlowAtFilter_92 write:
    sum(fz_solid_92) of phi = 0.000128473

volFieldValue volFieldValue_93 write:
    volIntegrate(cz_solid_93) of U = (-8.53426e-10 -5.33894e-08 -1.84267e-09)

surfaceFieldValue massFlowAtFilter_93 write:
    sum(fz_solid_93) of phi = -1.16371e-05

volFieldValue volFieldValue_94 write:
    volIntegrate(cz_solid_94) of U = (-2.65582e-09 9.75369e-09 -7.34884e-10)

surfaceFieldValue massFlowAtFilter_94 write:
    sum(fz_solid_94) of phi = 0.000688533

volFieldValue volFieldValue_95 write:
    volIntegrate(cz_solid_95) of U = (-1.39751e-09 6.04496e-08 -1.24856e-09)

surfaceFieldValue massFlowAtFilter_95 write:
    sum(fz_solid_95) of phi = -0.000104721

volFieldValue volFieldValue_96 write:
    volIntegrate(cz_solid_96) of U = (-9.7587e-10 7.96599e-08 -8.20929e-10)

surfaceFieldValue massFlowAtFilter_96 write:
    sum(fz_solid_96) of phi = -4.26796e-05

volFieldValue volFieldValue_97 write:
    volIntegrate(cz_solid_97) of U = (-5.86592e-10 7.43069e-08 -1.8559e-10)

surfaceFieldValue massFlowAtFilter_97 write:
    sum(fz_solid_97) of phi = 0.000259696

volFieldValue volFieldValue_98 write:
    volIntegrate(cz_solid_98) of U = (-4.82408e-10 4.14764e-08 9.5298e-11)

surfaceFieldValue massFlowAtFilter_98 write:
    sum(fz_solid_98) of phi = -0.000220253

volFieldValue volFieldValue_99 write:
    volIntegrate(cz_solid_99) of U = (-5.42148e-10 1.53825e-08 3.22233e-10)

surfaceFieldValue massFlowAtFilter_99 write:
    sum(fz_solid_99) of phi = 0.000248933

End

Finalising parallel run
