/*---------------------------------------------------------------------------*\
  =========                 |
  \\      /  F ield         | OpenFOAM: The Open Source CFD Toolbox
   \\    /   O peration     | Website:  https://openfoam.org
    \\  /    A nd           | Version:  6
     \\/     M anipulation  |
\*---------------------------------------------------------------------------*/
Build  : 6
Exec   : bouSimpleFoam -parallel
Date   : Aug 08 2020
Time   : 18:50:43
Host   : "emps-ugcs2"
PID    : 21570
I/O    : uncollated
Case   : /home/links/jjw230/Second_Extra/Case13
nProcs : 4
Slaves : 
3
(
"emps-ugcs2.21571"
"emps-ugcs2.21572"
"emps-ugcs2.21573"
)

Pstream initialized with:
    floatTransfer      : 0
    nProcsSimpleSum    : 0
    commsType          : nonBlocking
    polling iterations : 0
sigFpe : Enabling floating point exception trapping (FOAM_SIGFPE).
fileModificationChecking : Monitoring run-time modified files using timeStampMaster (fileModificationSkew 10)
allowSystemOperations : Allowing user-supplied system call operations

// * * * * * * * * * * * * * * * * * * * * * * * * * * * * * * * * * * * * * //
Create time

Create mesh for time = 0


SIMPLE: Convergence criteria found
        p: tolerance 0.001
        U: tolerance 0.001
        "(k|epsilon)": tolerance 0.001
        theta: tolerance 0.001

Reading field p

Reading field U

Reading field theta

Reading/calculating face flux field phi

Selecting incompressible transport model Newtonian
Selecting turbulence model type RAS
Selecting RAS turbulence model RNGkEpsilon
RAS
{
    RASModel        RNGkEpsilon;
    turbulence      on;
    printCoeffs     on;
    Cmu             0.0845;
    C1              1.42;
    C2              1.68;
    C3              0;
    sigmak          0.71942;
    sigmaEps        0.71942;
    eta0            4.38;
    beta            0.012;
}

No MRF models present

Creating finite volume options from "system/fvOptions"

Selecting finite volume options model type explicitPorositySource
    Source: source0
    - selecting cells using cellZone cz_solid_0
    - selected 2318 cell(s) with volume 0.00214548
Porosity region source0:
    selecting model: DarcyForchheimer
    creating porous zone: cz_solid_0
Selecting finite volume options model type explicitPorositySource
    Source: source1
    - selecting cells using cellZone cz_solid_1
    - selected 2452 cell(s) with volume 0.002142
Porosity region source1:
    selecting model: DarcyForchheimer
    creating porous zone: cz_solid_1
Selecting finite volume options model type explicitPorositySource
    Source: source2
    - selecting cells using cellZone cz_solid_2
    - selected 2346 cell(s) with volume 0.00214582
Porosity region source2:
    selecting model: DarcyForchheimer
    creating porous zone: cz_solid_2
Selecting finite volume options model type explicitPorositySource
    Source: source3
    - selecting cells using cellZone cz_solid_3
    - selected 2089 cell(s) with volume 0.00214078
Porosity region source3:
    selecting model: DarcyForchheimer
    creating porous zone: cz_solid_3
Selecting finite volume options model type explicitPorositySource
    Source: source4
    - selecting cells using cellZone cz_solid_4
    - selected 2326 cell(s) with volume 0.0021449
Porosity region source4:
    selecting model: DarcyForchheimer
    creating porous zone: cz_solid_4
Selecting finite volume options model type explicitPorositySource
    Source: source5
    - selecting cells using cellZone cz_solid_5
    - selected 1880 cell(s) with volume 0.0021415
Porosity region source5:
    selecting model: DarcyForchheimer
    creating porous zone: cz_solid_5
Selecting finite volume options model type explicitPorositySource
    Source: source6
    - selecting cells using cellZone cz_solid_6
    - selected 2174 cell(s) with volume 0.00214476
Porosity region source6:
    selecting model: DarcyForchheimer
    creating porous zone: cz_solid_6
Selecting finite volume options model type explicitPorositySource
    Source: source7
    - selecting cells using cellZone cz_solid_7
    - selected 2094 cell(s) with volume 0.00214468
Porosity region source7:
    selecting model: DarcyForchheimer
    creating porous zone: cz_solid_7
Selecting finite volume options model type explicitPorositySource
    Source: source8
    - selecting cells using cellZone cz_solid_8
    - selected 1733 cell(s) with volume 0.00214309
Porosity region source8:
    selecting model: DarcyForchheimer
    creating porous zone: cz_solid_8
Selecting finite volume options model type explicitPorositySource
    Source: source9
    - selecting cells using cellZone cz_solid_9
    - selected 2083 cell(s) with volume 0.00214289
Porosity region source9:
    selecting model: DarcyForchheimer
    creating porous zone: cz_solid_9
Selecting finite volume options model type explicitPorositySource
    Source: source10
    - selecting cells using cellZone cz_solid_10
    - selected 2281 cell(s) with volume 0.00214538
Porosity region source10:
    selecting model: DarcyForchheimer
    creating porous zone: cz_solid_10
Selecting finite volume options model type explicitPorositySource
    Source: source11
    - selecting cells using cellZone cz_solid_11
    - selected 2356 cell(s) with volume 0.00214357
Porosity region source11:
    selecting model: DarcyForchheimer
    creating porous zone: cz_solid_11
Selecting finite volume options model type explicitPorositySource
    Source: source12
    - selecting cells using cellZone cz_solid_12
    - selected 2358 cell(s) with volume 0.00214464
Porosity region source12:
    selecting model: DarcyForchheimer
    creating porous zone: cz_solid_12
Selecting finite volume options model type explicitPorositySource
    Source: source13
    - selecting cells using cellZone cz_solid_13
    - selected 2004 cell(s) with volume 0.00214286
Porosity region source13:
    selecting model: DarcyForchheimer
    creating porous zone: cz_solid_13
Selecting finite volume options model type explicitPorositySource
    Source: source14
    - selecting cells using cellZone cz_solid_14
    - selected 1880 cell(s) with volume 0.00214442
Porosity region source14:
    selecting model: DarcyForchheimer
    creating porous zone: cz_solid_14
Selecting finite volume options model type explicitPorositySource
    Source: source15
    - selecting cells using cellZone cz_solid_15
    - selected 2114 cell(s) with volume 0.00214219
Porosity region source15:
    selecting model: DarcyForchheimer
    creating porous zone: cz_solid_15
Selecting finite volume options model type explicitPorositySource
    Source: source16
    - selecting cells using cellZone cz_solid_16
    - selected 2244 cell(s) with volume 0.00214186
Porosity region source16:
    selecting model: DarcyForchheimer
    creating porous zone: cz_solid_16
Selecting finite volume options model type explicitPorositySource
    Source: source17
    - selecting cells using cellZone cz_solid_17
    - selected 2319 cell(s) with volume 0.00214549
Porosity region source17:
    selecting model: DarcyForchheimer
    creating porous zone: cz_solid_17
Selecting finite volume options model type explicitPorositySource
    Source: source18
    - selecting cells using cellZone cz_solid_18
    - selected 2361 cell(s) with volume 0.00214505
Porosity region source18:
    selecting model: DarcyForchheimer
    creating porous zone: cz_solid_18
Selecting finite volume options model type explicitPorositySource
    Source: source19
    - selecting cells using cellZone cz_solid_19
    - selected 1815 cell(s) with volume 0.00213922
Porosity region source19:
    selecting model: DarcyForchheimer
    creating porous zone: cz_solid_19
Selecting finite volume options model type explicitPorositySource
    Source: source20
    - selecting cells using cellZone cz_solid_20
    - selected 2328 cell(s) with volume 0.00214512
Porosity region source20:
    selecting model: DarcyForchheimer
    creating porous zone: cz_solid_20
Selecting finite volume options model type explicitPorositySource
    Source: source21
    - selecting cells using cellZone cz_solid_21
    - selected 2444 cell(s) with volume 0.00214205
Porosity region source21:
    selecting model: DarcyForchheimer
    creating porous zone: cz_solid_21
Selecting finite volume options model type explicitPorositySource
    Source: source22
    - selecting cells using cellZone cz_solid_22
    - selected 2328 cell(s) with volume 0.00214543
Porosity region source22:
    selecting model: DarcyForchheimer
    creating porous zone: cz_solid_22
Selecting finite volume options model type explicitPorositySource
    Source: source23
    - selecting cells using cellZone cz_solid_23
    - selected 2088 cell(s) with volume 0.00214072
Porosity region source23:
    selecting model: DarcyForchheimer
    creating porous zone: cz_solid_23
Selecting finite volume options model type explicitPorositySource
    Source: source24
    - selecting cells using cellZone cz_solid_24
    - selected 2332 cell(s) with volume 0.00214464
Porosity region source24:
    selecting model: DarcyForchheimer
    creating porous zone: cz_solid_24
Selecting finite volume options model type explicitPorositySource
    Source: source25
    - selecting cells using cellZone cz_solid_25
    - selected 1892 cell(s) with volume 0.00214114
Porosity region source25:
    selecting model: DarcyForchheimer
    creating porous zone: cz_solid_25
Selecting finite volume options model type explicitPorositySource
    Source: source26
    - selecting cells using cellZone cz_solid_26
    - selected 2164 cell(s) with volume 0.00214447
Porosity region source26:
    selecting model: DarcyForchheimer
    creating porous zone: cz_solid_26
Selecting finite volume options model type explicitPorositySource
    Source: source27
    - selecting cells using cellZone cz_solid_27
    - selected 2090 cell(s) with volume 0.00214476
Porosity region source27:
    selecting model: DarcyForchheimer
    creating porous zone: cz_solid_27
Selecting finite volume options model type explicitPorositySource
    Source: source28
    - selecting cells using cellZone cz_solid_28
    - selected 1738 cell(s) with volume 0.00214291
Porosity region source28:
    selecting model: DarcyForchheimer
    creating porous zone: cz_solid_28
Selecting finite volume options model type explicitPorositySource
    Source: source29
    - selecting cells using cellZone cz_solid_29
    - selected 2074 cell(s) with volume 0.00214279
Porosity region source29:
    selecting model: DarcyForchheimer
    creating porous zone: cz_solid_29
Selecting finite volume options model type explicitPorositySource
    Source: source30
    - selecting cells using cellZone cz_solid_30
    - selected 2292 cell(s) with volume 0.00214513
Porosity region source30:
    selecting model: DarcyForchheimer
    creating porous zone: cz_solid_30
Selecting finite volume options model type explicitPorositySource
    Source: source31
    - selecting cells using cellZone cz_solid_31
    - selected 2368 cell(s) with volume 0.00214363
Porosity region source31:
    selecting model: DarcyForchheimer
    creating porous zone: cz_solid_31
Selecting finite volume options model type explicitPorositySource
    Source: source32
    - selecting cells using cellZone cz_solid_32
    - selected 2348 cell(s) with volume 0.0021446
Porosity region source32:
    selecting model: DarcyForchheimer
    creating porous zone: cz_solid_32
Selecting finite volume options model type explicitPorositySource
    Source: source33
    - selecting cells using cellZone cz_solid_33
    - selected 1996 cell(s) with volume 0.0021428
Porosity region source33:
    selecting model: DarcyForchheimer
    creating porous zone: cz_solid_33
Selecting finite volume options model type explicitPorositySource
    Source: source34
    - selecting cells using cellZone cz_solid_34
    - selected 1892 cell(s) with volume 0.00214432
Porosity region source34:
    selecting model: DarcyForchheimer
    creating porous zone: cz_solid_34
Selecting finite volume options model type explicitPorositySource
    Source: source35
    - selecting cells using cellZone cz_solid_35
    - selected 2106 cell(s) with volume 0.00214159
Porosity region source35:
    selecting model: DarcyForchheimer
    creating porous zone: cz_solid_35
Selecting finite volume options model type explicitPorositySource
    Source: source36
    - selecting cells using cellZone cz_solid_36
    - selected 2256 cell(s) with volume 0.002142
Porosity region source36:
    selecting model: DarcyForchheimer
    creating porous zone: cz_solid_36
Selecting finite volume options model type explicitPorositySource
    Source: source37
    - selecting cells using cellZone cz_solid_37
    - selected 2332 cell(s) with volume 0.0021447
Porosity region source37:
    selecting model: DarcyForchheimer
    creating porous zone: cz_solid_37
Selecting finite volume options model type explicitPorositySource
    Source: source38
    - selecting cells using cellZone cz_solid_38
    - selected 2346 cell(s) with volume 0.00214452
Porosity region source38:
    selecting model: DarcyForchheimer
    creating porous zone: cz_solid_38
Selecting finite volume options model type explicitPorositySource
    Source: source39
    - selecting cells using cellZone cz_solid_39
    - selected 1814 cell(s) with volume 0.00213937
Porosity region source39:
    selecting model: DarcyForchheimer
    creating porous zone: cz_solid_39
Selecting finite volume options model type explicitPorositySource
    Source: source40
    - selecting cells using cellZone cz_solid_40
    - selected 2388 cell(s) with volume 0.00214534
Porosity region source40:
    selecting model: DarcyForchheimer
    creating porous zone: cz_solid_40
Selecting finite volume options model type explicitPorositySource
    Source: source41
    - selecting cells using cellZone cz_solid_41
    - selected 2508 cell(s) with volume 0.00214184
Porosity region source41:
    selecting model: DarcyForchheimer
    creating porous zone: cz_solid_41
Selecting finite volume options model type explicitPorositySource
    Source: source42
    - selecting cells using cellZone cz_solid_42
    - selected 2409 cell(s) with volume 0.00214565
Porosity region source42:
    selecting model: DarcyForchheimer
    creating porous zone: cz_solid_42
Selecting finite volume options model type explicitPorositySource
    Source: source43
    - selecting cells using cellZone cz_solid_43
    - selected 2159 cell(s) with volume 0.00214083
Porosity region source43:
    selecting model: DarcyForchheimer
    creating porous zone: cz_solid_43
Selecting finite volume options model type explicitPorositySource
    Source: source44
    - selecting cells using cellZone cz_solid_44
    - selected 2396 cell(s) with volume 0.00214494
Porosity region source44:
    selecting model: DarcyForchheimer
    creating porous zone: cz_solid_44
Selecting finite volume options model type explicitPorositySource
    Source: source45
    - selecting cells using cellZone cz_solid_45
    - selected 1964 cell(s) with volume 0.00214171
Porosity region source45:
    selecting model: DarcyForchheimer
    creating porous zone: cz_solid_45
Selecting finite volume options model type explicitPorositySource
    Source: source46
    - selecting cells using cellZone cz_solid_46
    - selected 2244 cell(s) with volume 0.00214429
Porosity region source46:
    selecting model: DarcyForchheimer
    creating porous zone: cz_solid_46
Selecting finite volume options model type explicitPorositySource
    Source: source47
    - selecting cells using cellZone cz_solid_47
    - selected 2171 cell(s) with volume 0.00214448
Porosity region source47:
    selecting model: DarcyForchheimer
    creating porous zone: cz_solid_47
Selecting finite volume options model type explicitPorositySource
    Source: source48
    - selecting cells using cellZone cz_solid_48
    - selected 1810 cell(s) with volume 0.00214307
Porosity region source48:
    selecting model: DarcyForchheimer
    creating porous zone: cz_solid_48
Selecting finite volume options model type explicitPorositySource
    Source: source49
    - selecting cells using cellZone cz_solid_49
    - selected 2139 cell(s) with volume 0.00214295
Porosity region source49:
    selecting model: DarcyForchheimer
    creating porous zone: cz_solid_49
Selecting finite volume options model type explicitPorositySource
    Source: source50
    - selecting cells using cellZone cz_solid_50
    - selected 2365 cell(s) with volume 0.00214509
Porosity region source50:
    selecting model: DarcyForchheimer
    creating porous zone: cz_solid_50
Selecting finite volume options model type explicitPorositySource
    Source: source51
    - selecting cells using cellZone cz_solid_51
    - selected 2433 cell(s) with volume 0.00214355
Porosity region source51:
    selecting model: DarcyForchheimer
    creating porous zone: cz_solid_51
Selecting finite volume options model type explicitPorositySource
    Source: source52
    - selecting cells using cellZone cz_solid_52
    - selected 2414 cell(s) with volume 0.00214446
Porosity region source52:
    selecting model: DarcyForchheimer
    creating porous zone: cz_solid_52
Selecting finite volume options model type explicitPorositySource
    Source: source53
    - selecting cells using cellZone cz_solid_53
    - selected 2060 cell(s) with volume 0.00214307
Porosity region source53:
    selecting model: DarcyForchheimer
    creating porous zone: cz_solid_53
Selecting finite volume options model type explicitPorositySource
    Source: source54
    - selecting cells using cellZone cz_solid_54
    - selected 1964 cell(s) with volume 0.00214426
Porosity region source54:
    selecting model: DarcyForchheimer
    creating porous zone: cz_solid_54
Selecting finite volume options model type explicitPorositySource
    Source: source55
    - selecting cells using cellZone cz_solid_55
    - selected 2177 cell(s) with volume 0.00214199
Porosity region source55:
    selecting model: DarcyForchheimer
    creating porous zone: cz_solid_55
Selecting finite volume options model type explicitPorositySource
    Source: source56
    - selecting cells using cellZone cz_solid_56
    - selected 2321 cell(s) with volume 0.00214171
Porosity region source56:
    selecting model: DarcyForchheimer
    creating porous zone: cz_solid_56
Selecting finite volume options model type explicitPorositySource
    Source: source57
    - selecting cells using cellZone cz_solid_57
    - selected 2389 cell(s) with volume 0.00214542
Porosity region source57:
    selecting model: DarcyForchheimer
    creating porous zone: cz_solid_57
Selecting finite volume options model type explicitPorositySource
    Source: source58
    - selecting cells using cellZone cz_solid_58
    - selected 2417 cell(s) with volume 0.0021449
Porosity region source58:
    selecting model: DarcyForchheimer
    creating porous zone: cz_solid_58
Selecting finite volume options model type explicitPorositySource
    Source: source59
    - selecting cells using cellZone cz_solid_59
    - selected 1885 cell(s) with volume 0.00213933
Porosity region source59:
    selecting model: DarcyForchheimer
    creating porous zone: cz_solid_59
Selecting finite volume options model type explicitPorositySource
    Source: source60
    - selecting cells using cellZone cz_solid_60
    - selected 2374 cell(s) with volume 0.00214544
Porosity region source60:
    selecting model: DarcyForchheimer
    creating porous zone: cz_solid_60
Selecting finite volume options model type explicitPorositySource
    Source: source61
    - selecting cells using cellZone cz_solid_61
    - selected 2473 cell(s) with volume 0.00214201
Porosity region source61:
    selecting model: DarcyForchheimer
    creating porous zone: cz_solid_61
Selecting finite volume options model type explicitPorositySource
    Source: source62
    - selecting cells using cellZone cz_solid_62
    - selected 2346 cell(s) with volume 0.00214557
Porosity region source62:
    selecting model: DarcyForchheimer
    creating porous zone: cz_solid_62
Selecting finite volume options model type explicitPorositySource
    Source: source63
    - selecting cells using cellZone cz_solid_63
    - selected 2096 cell(s) with volume 0.00214091
Porosity region source63:
    selecting model: DarcyForchheimer
    creating porous zone: cz_solid_63
Selecting finite volume options model type explicitPorositySource
    Source: source64
    - selecting cells using cellZone cz_solid_64
    - selected 2326 cell(s) with volume 0.0021453
Porosity region source64:
    selecting model: DarcyForchheimer
    creating porous zone: cz_solid_64
Selecting finite volume options model type explicitPorositySource
    Source: source65
    - selecting cells using cellZone cz_solid_65
    - selected 1883 cell(s) with volume 0.00214161
Porosity region source65:
    selecting model: DarcyForchheimer
    creating porous zone: cz_solid_65
Selecting finite volume options model type explicitPorositySource
    Source: source66
    - selecting cells using cellZone cz_solid_66
    - selected 2198 cell(s) with volume 0.00214428
Porosity region source66:
    selecting model: DarcyForchheimer
    creating porous zone: cz_solid_66
Selecting finite volume options model type explicitPorositySource
    Source: source67
    - selecting cells using cellZone cz_solid_67
    - selected 2118 cell(s) with volume 0.00214472
Porosity region source67:
    selecting model: DarcyForchheimer
    creating porous zone: cz_solid_67
Selecting finite volume options model type explicitPorositySource
    Source: source68
    - selecting cells using cellZone cz_solid_68
    - selected 1727 cell(s) with volume 0.00214314
Porosity region source68:
    selecting model: DarcyForchheimer
    creating porous zone: cz_solid_68
Selecting finite volume options model type explicitPorositySource
    Source: source69
    - selecting cells using cellZone cz_solid_69
    - selected 2097 cell(s) with volume 0.00214277
Porosity region source69:
    selecting model: DarcyForchheimer
    creating porous zone: cz_solid_69
Selecting finite volume options model type explicitPorositySource
    Source: source70
    - selecting cells using cellZone cz_solid_70
    - selected 2309 cell(s) with volume 0.00214517
Porosity region source70:
    selecting model: DarcyForchheimer
    creating porous zone: cz_solid_70
Selecting finite volume options model type explicitPorositySource
    Source: source71
    - selecting cells using cellZone cz_solid_71
    - selected 2377 cell(s) with volume 0.00214354
Porosity region source71:
    selecting model: DarcyForchheimer
    creating porous zone: cz_solid_71
Selecting finite volume options model type explicitPorositySource
    Source: source72
    - selecting cells using cellZone cz_solid_72
    - selected 2393 cell(s) with volume 0.00214449
Porosity region source72:
    selecting model: DarcyForchheimer
    creating porous zone: cz_solid_72
Selecting finite volume options model type explicitPorositySource
    Source: source73
    - selecting cells using cellZone cz_solid_73
    - selected 1997 cell(s) with volume 0.00214275
Porosity region source73:
    selecting model: DarcyForchheimer
    creating porous zone: cz_solid_73
Selecting finite volume options model type explicitPorositySource
    Source: source74
    - selecting cells using cellZone cz_solid_74
    - selected 1891 cell(s) with volume 0.00214425
Porosity region source74:
    selecting model: DarcyForchheimer
    creating porous zone: cz_solid_74
Selecting finite volume options model type explicitPorositySource
    Source: source75
    - selecting cells using cellZone cz_solid_75
    - selected 2119 cell(s) with volume 0.0021421
Porosity region source75:
    selecting model: DarcyForchheimer
    creating porous zone: cz_solid_75
Selecting finite volume options model type explicitPorositySource
    Source: source76
    - selecting cells using cellZone cz_solid_76
    - selected 2244 cell(s) with volume 0.00214189
Porosity region source76:
    selecting model: DarcyForchheimer
    creating porous zone: cz_solid_76
Selecting finite volume options model type explicitPorositySource
    Source: source77
    - selecting cells using cellZone cz_solid_77
    - selected 2361 cell(s) with volume 0.00214526
Porosity region source77:
    selecting model: DarcyForchheimer
    creating porous zone: cz_solid_77
Selecting finite volume options model type explicitPorositySource
    Source: source78
    - selecting cells using cellZone cz_solid_78
    - selected 2382 cell(s) with volume 0.00214532
Porosity region source78:
    selecting model: DarcyForchheimer
    creating porous zone: cz_solid_78
Selecting finite volume options model type explicitPorositySource
    Source: source79
    - selecting cells using cellZone cz_solid_79
    - selected 1803 cell(s) with volume 0.00213923
Porosity region source79:
    selecting model: DarcyForchheimer
    creating porous zone: cz_solid_79
Selecting finite volume options model type explicitPorositySource
    Source: source80
    - selecting cells using cellZone cz_solid_80
    - selected 2374 cell(s) with volume 0.00214609
Porosity region source80:
    selecting model: DarcyForchheimer
    creating porous zone: cz_solid_80
Selecting finite volume options model type explicitPorositySource
    Source: source81
    - selecting cells using cellZone cz_solid_81
    - selected 2467 cell(s) with volume 0.00214338
Porosity region source81:
    selecting model: DarcyForchheimer
    creating porous zone: cz_solid_81
Selecting finite volume options model type explicitPorositySource
    Source: source82
    - selecting cells using cellZone cz_solid_82
    - selected 2343 cell(s) with volume 0.00214615
Porosity region source82:
    selecting model: DarcyForchheimer
    creating porous zone: cz_solid_82
Selecting finite volume options model type explicitPorositySource
    Source: source83
    - selecting cells using cellZone cz_solid_83
    - selected 2093 cell(s) with volume 0.00214155
Porosity region source83:
    selecting model: DarcyForchheimer
    creating porous zone: cz_solid_83
Selecting finite volume options model type explicitPorositySource
    Source: source84
    - selecting cells using cellZone cz_solid_84
    - selected 2326 cell(s) with volume 0.00214539
Porosity region source84:
    selecting model: DarcyForchheimer
    creating porous zone: cz_solid_84
Selecting finite volume options model type explicitPorositySource
    Source: source85
    - selecting cells using cellZone cz_solid_85
    - selected 1877 cell(s) with volume 0.00214237
Porosity region source85:
    selecting model: DarcyForchheimer
    creating porous zone: cz_solid_85
Selecting finite volume options model type explicitPorositySource
    Source: source86
    - selecting cells using cellZone cz_solid_86
    - selected 2189 cell(s) with volume 0.00214561
Porosity region source86:
    selecting model: DarcyForchheimer
    creating porous zone: cz_solid_86
Selecting finite volume options model type explicitPorositySource
    Source: source87
    - selecting cells using cellZone cz_solid_87
    - selected 2109 cell(s) with volume 0.0021462
Porosity region source87:
    selecting model: DarcyForchheimer
    creating porous zone: cz_solid_87
Selecting finite volume options model type explicitPorositySource
    Source: source88
    - selecting cells using cellZone cz_solid_88
    - selected 1718 cell(s) with volume 0.00214459
Porosity region source88:
    selecting model: DarcyForchheimer
    creating porous zone: cz_solid_88
Selecting finite volume options model type explicitPorositySource
    Source: source89
    - selecting cells using cellZone cz_solid_89
    - selected 2091 cell(s) with volume 0.00214379
Porosity region source89:
    selecting model: DarcyForchheimer
    creating porous zone: cz_solid_89
Selecting finite volume options model type explicitPorositySource
    Source: source90
    - selecting cells using cellZone cz_solid_90
    - selected 2303 cell(s) with volume 0.00214597
Porosity region source90:
    selecting model: DarcyForchheimer
    creating porous zone: cz_solid_90
Selecting finite volume options model type explicitPorositySource
    Source: source91
    - selecting cells using cellZone cz_solid_91
    - selected 2374 cell(s) with volume 0.00214432
Porosity region source91:
    selecting model: DarcyForchheimer
    creating porous zone: cz_solid_91
Selecting finite volume options model type explicitPorositySource
    Source: source92
    - selecting cells using cellZone cz_solid_92
    - selected 2393 cell(s) with volume 0.00214484
Porosity region source92:
    selecting model: DarcyForchheimer
    creating porous zone: cz_solid_92
Selecting finite volume options model type explicitPorositySource
    Source: source93
    - selecting cells using cellZone cz_solid_93
    - selected 1991 cell(s) with volume 0.00214388
Porosity region source93:
    selecting model: DarcyForchheimer
    creating porous zone: cz_solid_93
Selecting finite volume options model type explicitPorositySource
    Source: source94
    - selecting cells using cellZone cz_solid_94
    - selected 1882 cell(s) with volume 0.00214575
Porosity region source94:
    selecting model: DarcyForchheimer
    creating porous zone: cz_solid_94
Selecting finite volume options model type explicitPorositySource
    Source: source95
    - selecting cells using cellZone cz_solid_95
    - selected 2119 cell(s) with volume 0.00214265
Porosity region source95:
    selecting model: DarcyForchheimer
    creating porous zone: cz_solid_95
Selecting finite volume options model type explicitPorositySource
    Source: source96
    - selecting cells using cellZone cz_solid_96
    - selected 2241 cell(s) with volume 0.00214271
Porosity region source96:
    selecting model: DarcyForchheimer
    creating porous zone: cz_solid_96
Selecting finite volume options model type explicitPorositySource
    Source: source97
    - selecting cells using cellZone cz_solid_97
    - selected 2361 cell(s) with volume 0.00214554
Porosity region source97:
    selecting model: DarcyForchheimer
    creating porous zone: cz_solid_97
Selecting finite volume options model type explicitPorositySource
    Source: source98
    - selecting cells using cellZone cz_solid_98
    - selected 2376 cell(s) with volume 0.00214619
Porosity region source98:
    selecting model: DarcyForchheimer
    creating porous zone: cz_solid_98
Selecting finite volume options model type explicitPorositySource
    Source: source99
    - selecting cells using cellZone cz_solid_99
    - selected 1797 cell(s) with volume 0.00214028
Porosity region source99:
    selecting model: DarcyForchheimer
    creating porous zone: cz_solid_99

Starting time loop

forces porousforces:
--> FOAM Warning : 
    From function Foam::labelHashSet Foam::polyBoundaryMesh::patchSet(const Foam::UList<Foam::wordRe>&, bool, bool) const
    in file meshes/polyMesh/polyBoundaryMesh/polyBoundaryMesh.C at line 798
    Cannot find any patch or group names matching solid_to_fluid
    Including porosity effects


surfaceFieldValue massFlowAtFilter_0:
    total faces  = 1950
    total area   = 0.101735




surfaceFieldValue massFlowAtFilter_1:
    total faces  = 1802
    total area   = 0.101671




surfaceFieldValue massFlowAtFilter_2:
    total faces  = 1953
    total area   = 0.10172




surfaceFieldValue massFlowAtFilter_3:
    total faces  = 1690
    total area   = 0.101674




surfaceFieldValue massFlowAtFilter_4:
    total faces  = 1822
    total area   = 0.101824




surfaceFieldValue massFlowAtFilter_5:
    total faces  = 1697
    total area   = 0.101772




surfaceFieldValue massFlowAtFilter_6:
    total faces  = 1814
    total area   = 0.101923




surfaceFieldValue massFlowAtFilter_7:
    total faces  = 1867
    total area   = 0.101729




surfaceFieldValue massFlowAtFilter_8:
    total faces  = 1711
    total area   = 0.101705




surfaceFieldValue massFlowAtFilter_9:
    total faces  = 1672
    total area   = 0.101728




surfaceFieldValue massFlowAtFilter_10:
    total faces  = 1868
    total area   = 0.10175




surfaceFieldValue massFlowAtFilter_11:
    total faces  = 1795
    total area   = 0.101721




surfaceFieldValue massFlowAtFilter_12:
    total faces  = 1844
    total area   = 0.101731




surfaceFieldValue massFlowAtFilter_13:
    total faces  = 1658
    total area   = 0.101729




surfaceFieldValue massFlowAtFilter_14:
    total faces  = 1794
    total area   = 0.10173




surfaceFieldValue massFlowAtFilter_15:
    total faces  = 1777
    total area   = 0.101759




surfaceFieldValue massFlowAtFilter_16:
    total faces  = 1747
    total area   = 0.101686




surfaceFieldValue massFlowAtFilter_17:
    total faces  = 1833
    total area   = 0.10183




surfaceFieldValue massFlowAtFilter_18:
    total faces  = 1834
    total area   = 0.101816




surfaceFieldValue massFlowAtFilter_19:
    total faces  = 1612
    total area   = 0.101649




surfaceFieldValue massFlowAtFilter_20:
    total faces  = 1932
    total area   = 0.101589




surfaceFieldValue massFlowAtFilter_21:
    total faces  = 1782
    total area   = 0.101634




surfaceFieldValue massFlowAtFilter_22:
    total faces  = 1932
    total area   = 0.101623




surfaceFieldValue massFlowAtFilter_23:
    total faces  = 1676
    total area   = 0.101626




surfaceFieldValue massFlowAtFilter_24:
    total faces  = 1806
    total area   = 0.101639




surfaceFieldValue massFlowAtFilter_25:
    total faces  = 1686
    total area   = 0.101595




surfaceFieldValue massFlowAtFilter_26:
    total faces  = 1798
    total area   = 0.101826




surfaceFieldValue massFlowAtFilter_27:
    total faces  = 1852
    total area   = 0.101616




surfaceFieldValue massFlowAtFilter_28:
    total faces  = 1698
    total area   = 0.101665




surfaceFieldValue massFlowAtFilter_29:
    total faces  = 1652
    total area   = 0.101699




surfaceFieldValue massFlowAtFilter_30:
    total faces  = 1858
    total area   = 0.10173




surfaceFieldValue massFlowAtFilter_31:
    total faces  = 1784
    total area   = 0.101693




surfaceFieldValue massFlowAtFilter_32:
    total faces  = 1822
    total area   = 0.101711




surfaceFieldValue massFlowAtFilter_33:
    total faces  = 1638
    total area   = 0.101714




surfaceFieldValue massFlowAtFilter_34:
    total faces  = 1784
    total area   = 0.101692




surfaceFieldValue massFlowAtFilter_35:
    total faces  = 1758
    total area   = 0.101624




surfaceFieldValue massFlowAtFilter_36:
    total faces  = 1736
    total area   = 0.101648




surfaceFieldValue massFlowAtFilter_37:
    total faces  = 1818
    total area   = 0.101637




surfaceFieldValue massFlowAtFilter_38:
    total faces  = 1812
    total area   = 0.101663




surfaceFieldValue massFlowAtFilter_39:
    total faces  = 1598
    total area   = 0.101585




surfaceFieldValue massFlowAtFilter_40:
    total faces  = 1980
    total area   = 0.101736




surfaceFieldValue massFlowAtFilter_41:
    total faces  = 1826
    total area   = 0.101672




surfaceFieldValue massFlowAtFilter_42:
    total faces  = 1980
    total area   = 0.101711




surfaceFieldValue massFlowAtFilter_43:
    total faces  = 1720
    total area   = 0.101667




surfaceFieldValue massFlowAtFilter_44:
    total faces  = 1852
    total area   = 0.101823




surfaceFieldValue massFlowAtFilter_45:
    total faces  = 1733
    total area   = 0.101785




surfaceFieldValue massFlowAtFilter_46:
    total faces  = 1844
    total area   = 0.101819




surfaceFieldValue massFlowAtFilter_47:
    total faces  = 1900
    total area   = 0.101721




surfaceFieldValue massFlowAtFilter_48:
    total faces  = 1744
    total area   = 0.101691




surfaceFieldValue massFlowAtFilter_49:
    total faces  = 1696
    total area   = 0.101731




surfaceFieldValue massFlowAtFilter_50:
    total faces  = 1904
    total area   = 0.101747




surfaceFieldValue massFlowAtFilter_51:
    total faces  = 1828
    total area   = 0.101713




surfaceFieldValue massFlowAtFilter_52:
    total faces  = 1868
    total area   = 0.101736




surfaceFieldValue massFlowAtFilter_53:
    total faces  = 1682
    total area   = 0.101731




surfaceFieldValue massFlowAtFilter_54:
    total faces  = 1830
    total area   = 0.101733




surfaceFieldValue massFlowAtFilter_55:
    total faces  = 1804
    total area   = 0.101763




surfaceFieldValue massFlowAtFilter_56:
    total faces  = 1780
    total area   = 0.101677




surfaceFieldValue massFlowAtFilter_57:
    total faces  = 1863
    total area   = 0.101836




surfaceFieldValue massFlowAtFilter_58:
    total faces  = 1858
    total area   = 0.101816




surfaceFieldValue massFlowAtFilter_59:
    total faces  = 1642
    total area   = 0.101649




surfaceFieldValue massFlowAtFilter_60:
    total faces  = 1980
    total area   = 0.101738




surfaceFieldValue massFlowAtFilter_61:
    total faces  = 1826
    total area   = 0.101672




surfaceFieldValue massFlowAtFilter_62:
    total faces  = 1980
    total area   = 0.101689




surfaceFieldValue massFlowAtFilter_63:
    total faces  = 1714
    total area   = 0.101663




surfaceFieldValue massFlowAtFilter_64:
    total faces  = 1849
    total area   = 0.101802




surfaceFieldValue massFlowAtFilter_65:
    total faces  = 1718
    total area   = 0.101772




surfaceFieldValue massFlowAtFilter_66:
    total faces  = 1849
    total area   = 0.101822




surfaceFieldValue massFlowAtFilter_67:
    total faces  = 1910
    total area   = 0.101729




surfaceFieldValue massFlowAtFilter_68:
    total faces  = 1736
    total area   = 0.101705




surfaceFieldValue massFlowAtFilter_69:
    total faces  = 1693
    total area   = 0.101725




surfaceFieldValue massFlowAtFilter_70:
    total faces  = 1904
    total area   = 0.101735




surfaceFieldValue massFlowAtFilter_71:
    total faces  = 1828
    total area   = 0.101714




surfaceFieldValue massFlowAtFilter_72:
    total faces  = 1865
    total area   = 0.101727




surfaceFieldValue massFlowAtFilter_73:
    total faces  = 1673
    total area   = 0.101727




surfaceFieldValue massFlowAtFilter_74:
    total faces  = 1828
    total area   = 0.101721




surfaceFieldValue massFlowAtFilter_75:
    total faces  = 1805
    total area   = 0.101751




surfaceFieldValue massFlowAtFilter_76:
    total faces  = 1771
    total area   = 0.101674




surfaceFieldValue massFlowAtFilter_77:
    total faces  = 1863
    total area   = 0.101823




surfaceFieldValue massFlowAtFilter_78:
    total faces  = 1861
    total area   = 0.101813




surfaceFieldValue massFlowAtFilter_79:
    total faces  = 1630
    total area   = 0.101643




surfaceFieldValue massFlowAtFilter_80:
    total faces  = 1980
    total area   = 0.101659




surfaceFieldValue massFlowAtFilter_81:
    total faces  = 1832
    total area   = 0.101574




surfaceFieldValue massFlowAtFilter_82:
    total faces  = 1985
    total area   = 0.101595




surfaceFieldValue massFlowAtFilter_83:
    total faces  = 1719
    total area   = 0.101558




surfaceFieldValue massFlowAtFilter_84:
    total faces  = 1849
    total area   = 0.101652




surfaceFieldValue massFlowAtFilter_85:
    total faces  = 1724
    total area   = 0.10161




surfaceFieldValue massFlowAtFilter_86:
    total faces  = 1856
    total area   = 0.101702




surfaceFieldValue massFlowAtFilter_87:
    total faces  = 1917
    total area   = 0.101588




surfaceFieldValue massFlowAtFilter_88:
    total faces  = 1743
    total area   = 0.10159




surfaceFieldValue massFlowAtFilter_89:
    total faces  = 1699
    total area   = 0.101635




surfaceFieldValue massFlowAtFilter_90:
    total faces  = 1910
    total area   = 0.101656




surfaceFieldValue massFlowAtFilter_91:
    total faces  = 1833
    total area   = 0.101606




surfaceFieldValue massFlowAtFilter_92:
    total faces  = 1865
    total area   = 0.101664




surfaceFieldValue massFlowAtFilter_93:
    total faces  = 1679
    total area   = 0.101628




surfaceFieldValue massFlowAtFilter_94:
    total faces  = 1835
    total area   = 0.101582




surfaceFieldValue massFlowAtFilter_95:
    total faces  = 1805
    total area   = 0.101634




surfaceFieldValue massFlowAtFilter_96:
    total faces  = 1776
    total area   = 0.10158




surfaceFieldValue massFlowAtFilter_97:
    total faces  = 1863
    total area   = 0.101655




surfaceFieldValue massFlowAtFilter_98:
    total faces  = 1867
    total area   = 0.101633




surfaceFieldValue massFlowAtFilter_99:
    total faces  = 1636
    total area   = 0.101537


Time = 1

DILUPBiCG:  Solving for Ux, Initial residual = 1, Final residual = 1.99726e-06, No Iterations 6
DILUPBiCG:  Solving for Uy, Initial residual = 1, Final residual = 1.64689e-06, No Iterations 7
DILUPBiCG:  Solving for Uz, Initial residual = 1, Final residual = 5.67982e-06, No Iterations 6
DICPCG:  Solving for p, Initial residual = 1, Final residual = 0.0966614, No Iterations 328
DICPCG:  Solving for p, Initial residual = 0.0032807, Final residual = 0.000217545, No Iterations 4
DICPCG:  Solving for p, Initial residual = 0.000452833, Final residual = 4.48266e-05, No Iterations 32
time step continuity errors : sum local = 0.0505517, global = -0.0004818, cumulative = -0.0004818
DILUPBiCG:  Solving for epsilon, Initial residual = 0.0521932, Final residual = 9.95691e-06, No Iterations 3
DILUPBiCG:  Solving for k, Initial residual = 1, Final residual = 6.35747e-07, No Iterations 6
ExecutionTime = 6.89 s  ClockTime = 7 s

Time = 2

DILUPBiCG:  Solving for Ux, Initial residual = 0.000135154, Final residual = 3.38915e-06, No Iterations 2
DILUPBiCG:  Solving for Uy, Initial residual = 5.80721e-05, Final residual = 7.43517e-06, No Iterations 2
DILUPBiCG:  Solving for Uz, Initial residual = 0.000123928, Final residual = 2.51459e-06, No Iterations 2
DICPCG:  Solving for p, Initial residual = 0.0122436, Final residual = 0.00121638, No Iterations 116
DICPCG:  Solving for p, Initial residual = 0.00583448, Final residual = 0.000576848, No Iterations 44
DICPCG:  Solving for p, Initial residual = 0.0013605, Final residual = 0.000135537, No Iterations 263
time step continuity errors : sum local = 0.0374565, global = -9.85472e-06, cumulative = -0.000491655
DILUPBiCG:  Solving for epsilon, Initial residual = 0.0138341, Final residual = 7.56499e-07, No Iterations 4
DILUPBiCG:  Solving for k, Initial residual = 0.522014, Final residual = 7.73063e-07, No Iterations 6
ExecutionTime = 11.81 s  ClockTime = 12 s

Time = 3

DILUPBiCG:  Solving for Ux, Initial residual = 2.03359e-05, Final residual = 3.4628e-06, No Iterations 1
DILUPBiCG:  Solving for Uy, Initial residual = 1.28546e-05, Final residual = 2.60323e-06, No Iterations 1
DILUPBiCG:  Solving for Uz, Initial residual = 3.01899e-05, Final residual = 8.93078e-06, No Iterations 1
DICPCG:  Solving for p, Initial residual = 0.0182684, Final residual = 0.00175867, No Iterations 305
DICPCG:  Solving for p, Initial residual = 0.00723575, Final residual = 0.000570624, No Iterations 4
DICPCG:  Solving for p, Initial residual = 0.00100628, Final residual = 0.000100559, No Iterations 46
time step continuity errors : sum local = 0.0554618, global = -0.000208762, cumulative = -0.000700417
DILUPBiCG:  Solving for epsilon, Initial residual = 0.0185317, Final residual = 1.26781e-06, No Iterations 4
DILUPBiCG:  Solving for k, Initial residual = 0.268106, Final residual = 2.30612e-07, No Iterations 6
ExecutionTime = 16.07 s  ClockTime = 16 s

Time = 4

DILUPBiCG:  Solving for Ux, Initial residual = 5.62182e-06, Final residual = 5.62182e-06, No Iterations 0
DILUPBiCG:  Solving for Uy, Initial residual = 2.04485e-06, Final residual = 2.04485e-06, No Iterations 0
DILUPBiCG:  Solving for Uz, Initial residual = 7.05649e-06, Final residual = 7.05649e-06, No Iterations 0
DICPCG:  Solving for p, Initial residual = 0.123853, Final residual = 0.0120905, No Iterations 312
DICPCG:  Solving for p, Initial residual = 0.005145, Final residual = 0.000370169, No Iterations 4
DICPCG:  Solving for p, Initial residual = 0.00069398, Final residual = 6.64914e-05, No Iterations 42
time step continuity errors : sum local = 0.0346312, global = -0.000115991, cumulative = -0.000816408
DILUPBiCG:  Solving for epsilon, Initial residual = 0.0180638, Final residual = 5.76373e-06, No Iterations 3
DILUPBiCG:  Solving for k, Initial residual = 0.157387, Final residual = 6.37333e-07, No Iterations 5
ExecutionTime = 20.25 s  ClockTime = 21 s

Time = 5

DILUPBiCG:  Solving for Ux, Initial residual = 1.63427e-05, Final residual = 3.24946e-06, No Iterations 1
DILUPBiCG:  Solving for Uy, Initial residual = 8.82339e-06, Final residual = 8.82339e-06, No Iterations 0
DILUPBiCG:  Solving for Uz, Initial residual = 1.53089e-05, Final residual = 3.67071e-06, No Iterations 1
DICPCG:  Solving for p, Initial residual = 0.0217331, Final residual = 0.00211911, No Iterations 47
DICPCG:  Solving for p, Initial residual = 0.00655043, Final residual = 0.000635449, No Iterations 277
DICPCG:  Solving for p, Initial residual = 0.00206882, Final residual = 0.000195485, No Iterations 4
time step continuity errors : sum local = 0.0656133, global = 0.000396024, cumulative = -0.000420384
DILUPBiCG:  Solving for epsilon, Initial residual = 0.0155766, Final residual = 4.24321e-06, No Iterations 3
DILUPBiCG:  Solving for k, Initial residual = 0.111446, Final residual = 5.45577e-07, No Iterations 5
ExecutionTime = 24.2 s  ClockTime = 25 s

Time = 6

DILUPBiCG:  Solving for Ux, Initial residual = 2.09583e-05, Final residual = 4.61121e-06, No Iterations 1
DILUPBiCG:  Solving for Uy, Initial residual = 1.29821e-05, Final residual = 2.72746e-06, No Iterations 1
DILUPBiCG:  Solving for Uz, Initial residual = 1.74042e-05, Final residual = 5.1913e-06, No Iterations 1
DICPCG:  Solving for p, Initial residual = 0.0249864, Final residual = 0.00248827, No Iterations 298
DICPCG:  Solving for p, Initial residual = 0.00811388, Final residual = 0.000773841, No Iterations 6
DICPCG:  Solving for p, Initial residual = 0.00121292, Final residual = 0.000121106, No Iterations 54
time step continuity errors : sum local = 0.0481439, global = -0.000171855, cumulative = -0.000592239
DILUPBiCG:  Solving for epsilon, Initial residual = 0.0144132, Final residual = 4.62202e-06, No Iterations 3
DILUPBiCG:  Solving for k, Initial residual = 0.0935414, Final residual = 4.99559e-07, No Iterations 5
ExecutionTime = 28.47 s  ClockTime = 29 s

Time = 7

DILUPBiCG:  Solving for Ux, Initial residual = 1.35133e-05, Final residual = 4.50678e-07, No Iterations 2
DILUPBiCG:  Solving for Uy, Initial residual = 4.18485e-06, Final residual = 4.18485e-06, No Iterations 0
DILUPBiCG:  Solving for Uz, Initial residual = 8.536e-06, Final residual = 8.536e-06, No Iterations 0
DICPCG:  Solving for p, Initial residual = 0.0787751, Final residual = 0.00743254, No Iterations 302
DICPCG:  Solving for p, Initial residual = 0.00473782, Final residual = 0.000461858, No Iterations 4
DICPCG:  Solving for p, Initial residual = 0.00069434, Final residual = 6.83028e-05, No Iterations 51
time step continuity errors : sum local = 0.0300538, global = -7.39358e-05, cumulative = -0.000666175
DILUPBiCG:  Solving for epsilon, Initial residual = 0.013396, Final residual = 3.8602e-06, No Iterations 3
DILUPBiCG:  Solving for k, Initial residual = 0.0765248, Final residual = 6.05265e-07, No Iterations 5
ExecutionTime = 32.69 s  ClockTime = 33 s

Time = 8

DILUPBiCG:  Solving for Ux, Initial residual = 1.80815e-05, Final residual = 3.6085e-06, No Iterations 1
DILUPBiCG:  Solving for Uy, Initial residual = 1.04927e-05, Final residual = 2.18738e-06, No Iterations 1
DILUPBiCG:  Solving for Uz, Initial residual = 1.75625e-05, Final residual = 4.15114e-06, No Iterations 1
DICPCG:  Solving for p, Initial residual = 0.0282786, Final residual = 0.00281675, No Iterations 82
DICPCG:  Solving for p, Initial residual = 0.00844932, Final residual = 0.000830833, No Iterations 58
DICPCG:  Solving for p, Initial residual = 0.00233366, Final residual = 0.000222824, No Iterations 257
time step continuity errors : sum local = 0.0245281, global = -0.000242301, cumulative = -0.000908476
DILUPBiCG:  Solving for epsilon, Initial residual = 0.0130412, Final residual = 7.13911e-07, No Iterations 4
DILUPBiCG:  Solving for k, Initial residual = 0.0642999, Final residual = 3.5746e-08, No Iterations 6
ExecutionTime = 37.31 s  ClockTime = 38 s

Time = 9

DILUPBiCG:  Solving for Ux, Initial residual = 6.42248e-06, Final residual = 6.42248e-06, No Iterations 0
DILUPBiCG:  Solving for Uy, Initial residual = 6.39573e-06, Final residual = 6.39573e-06, No Iterations 0
DILUPBiCG:  Solving for Uz, Initial residual = 8.28628e-06, Final residual = 8.28628e-06, No Iterations 0
DICPCG:  Solving for p, Initial residual = 0.0215369, Final residual = 0.00209917, No Iterations 100
DICPCG:  Solving for p, Initial residual = 0.00803273, Final residual = 0.000784578, No Iterations 274
DICPCG:  Solving for p, Initial residual = 0.0290123, Final residual = 0.00274364, No Iterations 6
time step continuity errors : sum local = 0.0392021, global = -0.00029153, cumulative = -0.00120001
DILUPBiCG:  Solving for epsilon, Initial residual = 0.0120047, Final residual = 4.08e-06, No Iterations 3
DILUPBiCG:  Solving for k, Initial residual = 0.0571194, Final residual = 3.78818e-08, No Iterations 6
ExecutionTime = 41.67 s  ClockTime = 42 s

Time = 10

DILUPBiCG:  Solving for Ux, Initial residual = 3.80834e-06, Final residual = 3.80834e-06, No Iterations 0
DILUPBiCG:  Solving for Uy, Initial residual = 3.93221e-06, Final residual = 3.93221e-06, No Iterations 0
DILUPBiCG:  Solving for Uz, Initial residual = 4.75235e-06, Final residual = 4.75235e-06, No Iterations 0
DICPCG:  Solving for p, Initial residual = 0.0189218, Final residual = 0.0017601, No Iterations 301
DICPCG:  Solving for p, Initial residual = 0.009943, Final residual = 0.000928637, No Iterations 5
DICPCG:  Solving for p, Initial residual = 0.00146824, Final residual = 0.000144013, No Iterations 55
time step continuity errors : sum local = 0.0113473, global = 6.39923e-05, cumulative = -0.00113601
DILUPBiCG:  Solving for epsilon, Initial residual = 0.0112933, Final residual = 3.5119e-06, No Iterations 3
DILUPBiCG:  Solving for k, Initial residual = 0.0519215, Final residual = 4.87695e-08, No Iterations 6
ExecutionTime = 45.87 s  ClockTime = 46 s

Time = 11

DILUPBiCG:  Solving for Ux, Initial residual = 5.35973e-06, Final residual = 5.35973e-06, No Iterations 0
DILUPBiCG:  Solving for Uy, Initial residual = 1.50388e-06, Final residual = 1.50388e-06, No Iterations 0
DILUPBiCG:  Solving for Uz, Initial residual = 4.81771e-06, Final residual = 4.81771e-06, No Iterations 0
DICPCG:  Solving for p, Initial residual = 0.0280221, Final residual = 0.00262872, No Iterations 304
DICPCG:  Solving for p, Initial residual = 0.00539852, Final residual = 0.000507616, No Iterations 4
DICPCG:  Solving for p, Initial residual = 0.000776822, Final residual = 7.65676e-05, No Iterations 57
time step continuity errors : sum local = 0.007681, global = 7.09078e-05, cumulative = -0.00106511
DILUPBiCG:  Solving for epsilon, Initial residual = 0.0105648, Final residual = 3.8546e-06, No Iterations 3
DILUPBiCG:  Solving for k, Initial residual = 0.0478531, Final residual = 1.88415e-07, No Iterations 5
ExecutionTime = 50.08 s  ClockTime = 50 s

Time = 12

DILUPBiCG:  Solving for Ux, Initial residual = 6.68305e-06, Final residual = 6.68305e-06, No Iterations 0
DILUPBiCG:  Solving for Uy, Initial residual = 1.39462e-06, Final residual = 1.39462e-06, No Iterations 0
DILUPBiCG:  Solving for Uz, Initial residual = 5.75718e-06, Final residual = 5.75718e-06, No Iterations 0
DICPCG:  Solving for p, Initial residual = 0.0668911, Final residual = 0.00644725, No Iterations 299
DICPCG:  Solving for p, Initial residual = 0.00392801, Final residual = 0.000381083, No Iterations 16
DICPCG:  Solving for p, Initial residual = 0.000712791, Final residual = 7.08486e-05, No Iterations 36
time step continuity errors : sum local = 0.00603987, global = -1.61867e-05, cumulative = -0.00108129
DILUPBiCG:  Solving for epsilon, Initial residual = 0.00983991, Final residual = 6.50321e-06, No Iterations 3
DILUPBiCG:  Solving for k, Initial residual = 0.0445708, Final residual = 1.45388e-07, No Iterations 5
ExecutionTime = 54.21 s  ClockTime = 55 s

Time = 13

DILUPBiCG:  Solving for Ux, Initial residual = 6.41678e-06, Final residual = 6.41678e-06, No Iterations 0
DILUPBiCG:  Solving for Uy, Initial residual = 2.29864e-06, Final residual = 2.29864e-06, No Iterations 0
DILUPBiCG:  Solving for Uz, Initial residual = 5.99738e-06, Final residual = 5.99738e-06, No Iterations 0
DICPCG:  Solving for p, Initial residual = 0.0282693, Final residual = 0.00277334, No Iterations 78
DICPCG:  Solving for p, Initial residual = 0.00867443, Final residual = 0.000839432, No Iterations 62
DICPCG:  Solving for p, Initial residual = 0.00258267, Final residual = 0.000257393, No Iterations 253
time step continuity errors : sum local = 0.00897884, global = 1.89138e-05, cumulative = -0.00106238
DILUPBiCG:  Solving for epsilon, Initial residual = 0.00928811, Final residual = 1.1995e-06, No Iterations 4
DILUPBiCG:  Solving for k, Initial residual = 0.0418719, Final residual = 1.7962e-07, No Iterations 5
ExecutionTime = 58.72 s  ClockTime = 59 s

Time = 14

DILUPBiCG:  Solving for Ux, Initial residual = 4.78448e-06, Final residual = 4.78448e-06, No Iterations 0
DILUPBiCG:  Solving for Uy, Initial residual = 2.52297e-06, Final residual = 2.52297e-06, No Iterations 0
DILUPBiCG:  Solving for Uz, Initial residual = 4.87242e-06, Final residual = 4.87242e-06, No Iterations 0
DICPCG:  Solving for p, Initial residual = 0.022578, Final residual = 0.00210896, No Iterations 99
DICPCG:  Solving for p, Initial residual = 0.00795077, Final residual = 0.000773863, No Iterations 278
DICPCG:  Solving for p, Initial residual = 0.0142675, Final residual = 0.00141486, No Iterations 7
time step continuity errors : sum local = 0.0129914, global = 5.53916e-05, cumulative = -0.00100699
DILUPBiCG:  Solving for epsilon, Initial residual = 0.0089407, Final residual = 4.60029e-06, No Iterations 3
DILUPBiCG:  Solving for k, Initial residual = 0.0395333, Final residual = 2.48898e-07, No Iterations 5
ExecutionTime = 63.1 s  ClockTime = 63 s

Time = 15

DILUPBiCG:  Solving for Ux, Initial residual = 3.03386e-06, Final residual = 3.03386e-06, No Iterations 0
DILUPBiCG:  Solving for Uy, Initial residual = 1.98219e-06, Final residual = 1.98219e-06, No Iterations 0
DILUPBiCG:  Solving for Uz, Initial residual = 3.33091e-06, Final residual = 3.33091e-06, No Iterations 0
DICPCG:  Solving for p, Initial residual = 0.02164, Final residual = 0.00214621, No Iterations 300
DICPCG:  Solving for p, Initial residual = 0.0118378, Final residual = 0.00116487, No Iterations 21
DICPCG:  Solving for p, Initial residual = 0.00219307, Final residual = 0.000217709, No Iterations 46
time step continuity errors : sum local = 0.00586761, global = -7.86405e-05, cumulative = -0.00108563
DILUPBiCG:  Solving for epsilon, Initial residual = 0.00886065, Final residual = 9.89101e-06, No Iterations 3
DILUPBiCG:  Solving for k, Initial residual = 0.0374219, Final residual = 2.3391e-07, No Iterations 5
ExecutionTime = 67.35 s  ClockTime = 68 s

Time = 16

DILUPBiCG:  Solving for Ux, Initial residual = 2.60268e-06, Final residual = 2.60268e-06, No Iterations 0
DILUPBiCG:  Solving for Uy, Initial residual = 1.0417e-06, Final residual = 1.0417e-06, No Iterations 0
DILUPBiCG:  Solving for Uz, Initial residual = 2.74592e-06, Final residual = 2.74592e-06, No Iterations 0
DICPCG:  Solving for p, Initial residual = 0.0298961, Final residual = 0.00294349, No Iterations 303
DICPCG:  Solving for p, Initial residual = 0.00591585, Final residual = 0.000577987, No Iterations 5
DICPCG:  Solving for p, Initial residual = 0.000884253, Final residual = 8.82928e-05, No Iterations 60
time step continuity errors : sum local = 0.0037342, global = -6.34677e-05, cumulative = -0.0011491
DILUPBiCG:  Solving for epsilon, Initial residual = 0.008816, Final residual = 6.4883e-06, No Iterations 3
DILUPBiCG:  Solving for k, Initial residual = 0.0354291, Final residual = 1.94538e-07, No Iterations 5
ExecutionTime = 71.6 s  ClockTime = 72 s

Time = 17

DILUPBiCG:  Solving for Ux, Initial residual = 2.89155e-06, Final residual = 2.89155e-06, No Iterations 0
DILUPBiCG:  Solving for Uy, Initial residual = 5.24206e-07, Final residual = 5.24206e-07, No Iterations 0
DILUPBiCG:  Solving for Uz, Initial residual = 2.95317e-06, Final residual = 2.95317e-06, No Iterations 0
DICPCG:  Solving for p, Initial residual = 0.0697903, Final residual = 0.00657644, No Iterations 300
DICPCG:  Solving for p, Initial residual = 0.00381299, Final residual = 0.000372409, No Iterations 17
DICPCG:  Solving for p, Initial residual = 0.000687765, Final residual = 6.72273e-05, No Iterations 49
time step continuity errors : sum local = 0.0028154, global = -3.86604e-05, cumulative = -0.00118776
DILUPBiCG:  Solving for epsilon, Initial residual = 0.00865198, Final residual = 6.25432e-06, No Iterations 3
DILUPBiCG:  Solving for k, Initial residual = 0.0335357, Final residual = 1.71927e-07, No Iterations 5
ExecutionTime = 75.8 s  ClockTime = 76 s

Time = 18

DILUPBiCG:  Solving for Ux, Initial residual = 2.78829e-06, Final residual = 2.78829e-06, No Iterations 0
DILUPBiCG:  Solving for Uy, Initial residual = 9.47345e-07, Final residual = 9.47345e-07, No Iterations 0
DILUPBiCG:  Solving for Uz, Initial residual = 3.09171e-06, Final residual = 3.09171e-06, No Iterations 0
DICPCG:  Solving for p, Initial residual = 0.0235568, Final residual = 0.00232545, No Iterations 49
DICPCG:  Solving for p, Initial residual = 0.00599396, Final residual = 0.000583559, No Iterations 273
DICPCG:  Solving for p, Initial residual = 0.0018994, Final residual = 0.000186398, No Iterations 4
time step continuity errors : sum local = 0.00570012, global = 3.32445e-06, cumulative = -0.00118443
DILUPBiCG:  Solving for epsilon, Initial residual = 0.00840703, Final residual = 5.73901e-06, No Iterations 3
DILUPBiCG:  Solving for k, Initial residual = 0.0317997, Final residual = 1.58398e-07, No Iterations 5
ExecutionTime = 79.71 s  ClockTime = 80 s

Time = 19

DILUPBiCG:  Solving for Ux, Initial residual = 2.31359e-06, Final residual = 2.31359e-06, No Iterations 0
DILUPBiCG:  Solving for Uy, Initial residual = 1.12376e-06, Final residual = 1.12376e-06, No Iterations 0
DILUPBiCG:  Solving for Uz, Initial residual = 2.85448e-06, Final residual = 2.85448e-06, No Iterations 0
DICPCG:  Solving for p, Initial residual = 0.0178026, Final residual = 0.00169029, No Iterations 95
DICPCG:  Solving for p, Initial residual = 0.00561544, Final residual = 0.000538638, No Iterations 46
DICPCG:  Solving for p, Initial residual = 0.00138619, Final residual = 0.000136078, No Iterations 264
time step continuity errors : sum local = 0.00278508, global = -2.18128e-05, cumulative = -0.00120624
DILUPBiCG:  Solving for epsilon, Initial residual = 0.00815909, Final residual = 5.48846e-06, No Iterations 3
DILUPBiCG:  Solving for k, Initial residual = 0.0302562, Final residual = 1.46894e-07, No Iterations 5
ExecutionTime = 84.26 s  ClockTime = 85 s

Time = 20

DILUPBiCG:  Solving for Ux, Initial residual = 1.85447e-06, Final residual = 1.85447e-06, No Iterations 0
DILUPBiCG:  Solving for Uy, Initial residual = 9.91373e-07, Final residual = 9.91373e-07, No Iterations 0
DILUPBiCG:  Solving for Uz, Initial residual = 2.44223e-06, Final residual = 2.44223e-06, No Iterations 0
DICPCG:  Solving for p, Initial residual = 0.0158634, Final residual = 0.00157775, No Iterations 101
DICPCG:  Solving for p, Initial residual = 0.00604425, Final residual = 0.000585464, No Iterations 237
DICPCG:  Solving for p, Initial residual = 0.0232133, Final residual = 0.00214481, No Iterations 5
time step continuity errors : sum local = 0.00576129, global = -3.43785e-05, cumulative = -0.00124062
DILUPBiCG:  Solving for epsilon, Initial residual = 0.00795764, Final residual = 5.80561e-06, No Iterations 3
DILUPBiCG:  Solving for k, Initial residual = 0.0289124, Final residual = 1.35539e-07, No Iterations 5
ExecutionTime = 88.35 s  ClockTime = 89 s

forces porousforces write:
    sum of forces:
        pressure : (0 0 0)
        viscous  : (0 0 0)
        porous   : (89602.9 1.09401e-13 69069.1)
    sum of moments:
        pressure : (0 0 0)
        viscous  : (0 0 0)
        porous   : (61820.3 12006.7 -78788.9)

volFieldValue volFieldValue_0 write:
    volIntegrate(cz_solid_0) of U = (1.75697e-09 -4.38717e-09 -4.2229e-09)

surfaceFieldValue massFlowAtFilter_0 write:
    sum(fz_solid_0) of phi = -3.7511e-07

volFieldValue volFieldValue_1 write:
    volIntegrate(cz_solid_1) of U = (4.03196e-10 -3.94722e-09 -3.74264e-09)

surfaceFieldValue massFlowAtFilter_1 write:
    sum(fz_solid_1) of phi = 3.05288e-05

volFieldValue volFieldValue_2 write:
    volIntegrate(cz_solid_2) of U = (-6.59035e-10 -3.92407e-09 -3.19693e-09)

surfaceFieldValue massFlowAtFilter_2 write:
    sum(fz_solid_2) of phi = 2.38394e-06

volFieldValue volFieldValue_3 write:
    volIntegrate(cz_solid_3) of U = (-1.52641e-09 -3.77328e-09 -2.43454e-09)

surfaceFieldValue massFlowAtFilter_3 write:
    sum(fz_solid_3) of phi = -3.37764e-05

volFieldValue volFieldValue_4 write:
    volIntegrate(cz_solid_4) of U = (-2.27432e-09 -3.71145e-09 -1.67195e-09)

surfaceFieldValue massFlowAtFilter_4 write:
    sum(fz_solid_4) of phi = -2.4338e-05

volFieldValue volFieldValue_5 write:
    volIntegrate(cz_solid_5) of U = (-2.91721e-09 -3.69883e-09 -8.07286e-10)

surfaceFieldValue massFlowAtFilter_5 write:
    sum(fz_solid_5) of phi = -4.47132e-05

volFieldValue volFieldValue_6 write:
    volIntegrate(cz_solid_6) of U = (-3.48278e-09 -3.69479e-09 2.08839e-10)

surfaceFieldValue massFlowAtFilter_6 write:
    sum(fz_solid_6) of phi = -3.75082e-05

volFieldValue volFieldValue_7 write:
    volIntegrate(cz_solid_7) of U = (-3.80265e-09 -3.80426e-09 1.55109e-09)

surfaceFieldValue massFlowAtFilter_7 write:
    sum(fz_solid_7) of phi = -4.54242e-05

volFieldValue volFieldValue_8 write:
    volIntegrate(cz_solid_8) of U = (-3.70658e-09 -4.07233e-09 2.96375e-09)

surfaceFieldValue massFlowAtFilter_8 write:
    sum(fz_solid_8) of phi = 1.45611e-05

volFieldValue volFieldValue_9 write:
    volIntegrate(cz_solid_9) of U = (-3.03453e-09 -4.30932e-09 4.47453e-09)

surfaceFieldValue massFlowAtFilter_9 write:
    sum(fz_solid_9) of phi = -6.59527e-05

volFieldValue volFieldValue_10 write:
    volIntegrate(cz_solid_10) of U = (-1.59062e-09 -4.67103e-09 5.86457e-09)

surfaceFieldValue massFlowAtFilter_10 write:
    sum(fz_solid_10) of phi = 2.05331e-05

volFieldValue volFieldValue_11 write:
    volIntegrate(cz_solid_11) of U = (1.33492e-10 -4.91147e-09 6.73752e-09)

surfaceFieldValue massFlowAtFilter_11 write:
    sum(fz_solid_11) of phi = -4.69634e-05

volFieldValue volFieldValue_12 write:
    volIntegrate(cz_solid_12) of U = (2.48079e-09 -5.30234e-09 7.0676e-09)

surfaceFieldValue massFlowAtFilter_12 write:
    sum(fz_solid_12) of phi = -0.000182496

volFieldValue volFieldValue_13 write:
    volIntegrate(cz_solid_13) of U = (4.87007e-09 -5.69582e-09 6.40959e-09)

surfaceFieldValue massFlowAtFilter_13 write:
    sum(fz_solid_13) of phi = 5.58883e-05

volFieldValue volFieldValue_14 write:
    volIntegrate(cz_solid_14) of U = (6.91436e-09 -6.45948e-09 4.90877e-09)

surfaceFieldValue massFlowAtFilter_14 write:
    sum(fz_solid_14) of phi = -7.68286e-05

volFieldValue volFieldValue_15 write:
    volIntegrate(cz_solid_15) of U = (8.1394e-09 -6.72129e-09 2.55794e-09)

surfaceFieldValue massFlowAtFilter_15 write:
    sum(fz_solid_15) of phi = 6.70848e-05

volFieldValue volFieldValue_16 write:
    volIntegrate(cz_solid_16) of U = (8.04661e-09 -6.57995e-09 2.12221e-11)

surfaceFieldValue massFlowAtFilter_16 write:
    sum(fz_solid_16) of phi = -9.73125e-05

volFieldValue volFieldValue_17 write:
    volIntegrate(cz_solid_17) of U = (6.94034e-09 -6.22083e-09 -2.17781e-09)

surfaceFieldValue massFlowAtFilter_17 write:
    sum(fz_solid_17) of phi = 1.92064e-05

volFieldValue volFieldValue_18 write:
    volIntegrate(cz_solid_18) of U = (5.36253e-09 -5.72113e-09 -3.52144e-09)

surfaceFieldValue massFlowAtFilter_18 write:
    sum(fz_solid_18) of phi = 7.39152e-05

volFieldValue volFieldValue_19 write:
    volIntegrate(cz_solid_19) of U = (3.49725e-09 -5.04127e-09 -4.22938e-09)

surfaceFieldValue massFlowAtFilter_19 write:
    sum(fz_solid_19) of phi = 6.70387e-05

volFieldValue volFieldValue_20 write:
    volIntegrate(cz_solid_20) of U = (1.48205e-09 -8.88252e-09 -3.18958e-09)

surfaceFieldValue massFlowAtFilter_20 write:
    sum(fz_solid_20) of phi = -1.51747e-05

volFieldValue volFieldValue_21 write:
    volIntegrate(cz_solid_21) of U = (3.71334e-10 -8.13177e-09 -2.83312e-09)

surfaceFieldValue massFlowAtFilter_21 write:
    sum(fz_solid_21) of phi = 2.11816e-05

volFieldValue volFieldValue_22 write:
    volIntegrate(cz_solid_22) of U = (-4.69784e-10 -8.05746e-09 -2.41171e-09)

surfaceFieldValue massFlowAtFilter_22 write:
    sum(fz_solid_22) of phi = 6.02237e-06

volFieldValue volFieldValue_23 write:
    volIntegrate(cz_solid_23) of U = (-1.15877e-09 -7.63678e-09 -1.81589e-09)

surfaceFieldValue massFlowAtFilter_23 write:
    sum(fz_solid_23) of phi = -1.70716e-05

volFieldValue volFieldValue_24 write:
    volIntegrate(cz_solid_24) of U = (-1.73398e-09 -7.56429e-09 -1.21397e-09)

surfaceFieldValue massFlowAtFilter_24 write:
    sum(fz_solid_24) of phi = -2.61629e-05

volFieldValue volFieldValue_25 write:
    volIntegrate(cz_solid_25) of U = (-2.23708e-09 -7.45325e-09 -5.46354e-10)

surfaceFieldValue massFlowAtFilter_25 write:
    sum(fz_solid_25) of phi = -2.96287e-06

volFieldValue volFieldValue_26 write:
    volIntegrate(cz_solid_26) of U = (-2.66883e-09 -7.39979e-09 2.54044e-10)

surfaceFieldValue massFlowAtFilter_26 write:
    sum(fz_solid_26) of phi = -4.93966e-06

volFieldValue volFieldValue_27 write:
    volIntegrate(cz_solid_27) of U = (-2.88417e-09 -7.72791e-09 1.31977e-09)

surfaceFieldValue massFlowAtFilter_27 write:
    sum(fz_solid_27) of phi = 3.05779e-06

volFieldValue volFieldValue_28 write:
    volIntegrate(cz_solid_28) of U = (-2.77401e-09 -8.2232e-09 2.43019e-09)

surfaceFieldValue massFlowAtFilter_28 write:
    sum(fz_solid_28) of phi = -1.06009e-05

volFieldValue volFieldValue_29 write:
    volIntegrate(cz_solid_29) of U = (-2.20007e-09 -8.79912e-09 3.59751e-09)

surfaceFieldValue massFlowAtFilter_29 write:
    sum(fz_solid_29) of phi = 5.57674e-05

volFieldValue volFieldValue_30 write:
    volIntegrate(cz_solid_30) of U = (-1.00415e-09 -9.77241e-09 4.65266e-09)

surfaceFieldValue massFlowAtFilter_30 write:
    sum(fz_solid_30) of phi = 2.70828e-05

volFieldValue volFieldValue_31 write:
    volIntegrate(cz_solid_31) of U = (3.68233e-10 -1.08718e-08 5.26953e-09)

surfaceFieldValue massFlowAtFilter_31 write:
    sum(fz_solid_31) of phi = -1.87318e-05

volFieldValue volFieldValue_32 write:
    volIntegrate(cz_solid_32) of U = (2.177e-09 -1.24735e-08 5.469e-09)

surfaceFieldValue massFlowAtFilter_32 write:
    sum(fz_solid_32) of phi = -3.96901e-05

volFieldValue volFieldValue_33 write:
    volIntegrate(cz_solid_33) of U = (3.99635e-09 -1.35423e-08 4.97656e-09)

surfaceFieldValue massFlowAtFilter_33 write:
    sum(fz_solid_33) of phi = 6.34296e-06

volFieldValue volFieldValue_34 write:
    volIntegrate(cz_solid_34) of U = (5.59811e-09 -1.4535e-08 3.94801e-09)

surfaceFieldValue massFlowAtFilter_34 write:
    sum(fz_solid_34) of phi = -4.25721e-05

volFieldValue volFieldValue_35 write:
    volIntegrate(cz_solid_35) of U = (6.61643e-09 -1.50289e-08 2.28501e-09)

surfaceFieldValue massFlowAtFilter_35 write:
    sum(fz_solid_35) of phi = 2.60433e-05

volFieldValue volFieldValue_36 write:
    volIntegrate(cz_solid_36) of U = (6.62543e-09 -1.43458e-08 3.74977e-10)

surfaceFieldValue massFlowAtFilter_36 write:
    sum(fz_solid_36) of phi = -1.68463e-05

volFieldValue volFieldValue_37 write:
    volIntegrate(cz_solid_37) of U = (5.77348e-09 -1.26997e-08 -1.39395e-09)

surfaceFieldValue massFlowAtFilter_37 write:
    sum(fz_solid_37) of phi = 7.92428e-05

volFieldValue volFieldValue_38 write:
    volIntegrate(cz_solid_38) of U = (4.49576e-09 -1.13982e-08 -2.54052e-09)

surfaceFieldValue massFlowAtFilter_38 write:
    sum(fz_solid_38) of phi = 6.33482e-05

volFieldValue volFieldValue_39 write:
    volIntegrate(cz_solid_39) of U = (2.92902e-09 -1.02329e-08 -3.17825e-09)

surfaceFieldValue massFlowAtFilter_39 write:
    sum(fz_solid_39) of phi = 2.98496e-05

volFieldValue volFieldValue_40 write:
    volIntegrate(cz_solid_40) of U = (8.9254e-10 -8.43835e-09 -1.43332e-09)

surfaceFieldValue massFlowAtFilter_40 write:
    sum(fz_solid_40) of phi = 1.86479e-05

volFieldValue volFieldValue_41 write:
    volIntegrate(cz_solid_41) of U = (2.79583e-10 -7.68638e-09 -1.31713e-09)

surfaceFieldValue massFlowAtFilter_41 write:
    sum(fz_solid_41) of phi = 3.18304e-05

volFieldValue volFieldValue_42 write:
    volIntegrate(cz_solid_42) of U = (-1.78267e-10 -7.64032e-09 -1.11909e-09)

surfaceFieldValue massFlowAtFilter_42 write:
    sum(fz_solid_42) of phi = 3.30403e-06

volFieldValue volFieldValue_43 write:
    volIntegrate(cz_solid_43) of U = (-5.68177e-10 -7.23265e-09 -8.07267e-10)

surfaceFieldValue massFlowAtFilter_43 write:
    sum(fz_solid_43) of phi = 1.01425e-05

volFieldValue volFieldValue_44 write:
    volIntegrate(cz_solid_44) of U = (-9.12748e-10 -7.16513e-09 -4.8654e-10)

surfaceFieldValue massFlowAtFilter_44 write:
    sum(fz_solid_44) of phi = 1.2925e-06

volFieldValue volFieldValue_45 write:
    volIntegrate(cz_solid_45) of U = (-1.23455e-09 -7.00072e-09 -1.30301e-10)

surfaceFieldValue massFlowAtFilter_45 write:
    sum(fz_solid_45) of phi = 5.17309e-06

volFieldValue volFieldValue_46 write:
    volIntegrate(cz_solid_46) of U = (-1.52038e-09 -6.90556e-09 3.46409e-10)

surfaceFieldValue massFlowAtFilter_46 write:
    sum(fz_solid_46) of phi = 6.0534e-06

volFieldValue volFieldValue_47 write:
    volIntegrate(cz_solid_47) of U = (-1.64366e-09 -7.06523e-09 1.0227e-09)

surfaceFieldValue massFlowAtFilter_47 write:
    sum(fz_solid_47) of phi = 2.97243e-06

volFieldValue volFieldValue_48 write:
    volIntegrate(cz_solid_48) of U = (-1.54963e-09 -7.4644e-09 1.73778e-09)

surfaceFieldValue massFlowAtFilter_48 write:
    sum(fz_solid_48) of phi = -7.63452e-06

volFieldValue volFieldValue_49 write:
    volIntegrate(cz_solid_49) of U = (-1.12338e-09 -7.81984e-09 2.50461e-09)

surfaceFieldValue massFlowAtFilter_49 write:
    sum(fz_solid_49) of phi = 3.77435e-05

volFieldValue volFieldValue_50 write:
    volIntegrate(cz_solid_50) of U = (-2.41633e-10 -8.43751e-09 3.1963e-09)

surfaceFieldValue massFlowAtFilter_50 write:
    sum(fz_solid_50) of phi = 2.81374e-05

volFieldValue volFieldValue_51 write:
    volIntegrate(cz_solid_51) of U = (7.39615e-10 -9.35701e-09 3.57235e-09)

surfaceFieldValue massFlowAtFilter_51 write:
    sum(fz_solid_51) of phi = 1.25872e-05

volFieldValue volFieldValue_52 write:
    volIntegrate(cz_solid_52) of U = (2.04197e-09 -1.08448e-08 3.69366e-09)

surfaceFieldValue massFlowAtFilter_52 write:
    sum(fz_solid_52) of phi = 6.34684e-06

volFieldValue volFieldValue_53 write:
    volIntegrate(cz_solid_53) of U = (3.38929e-09 -1.27104e-08 3.45385e-09)

surfaceFieldValue massFlowAtFilter_53 write:
    sum(fz_solid_53) of phi = 4.45077e-05

volFieldValue volFieldValue_54 write:
    volIntegrate(cz_solid_54) of U = (4.71369e-09 -1.50068e-08 3.00781e-09)

surfaceFieldValue massFlowAtFilter_54 write:
    sum(fz_solid_54) of phi = -1.46864e-05

volFieldValue volFieldValue_55 write:
    volIntegrate(cz_solid_55) of U = (5.62482e-09 -1.72983e-08 2.21872e-09)

surfaceFieldValue massFlowAtFilter_55 write:
    sum(fz_solid_55) of phi = 3.0183e-05

volFieldValue volFieldValue_56 write:
    volIntegrate(cz_solid_56) of U = (5.31036e-09 -1.72491e-08 1.35894e-09)

surfaceFieldValue massFlowAtFilter_56 write:
    sum(fz_solid_56) of phi = 2.85962e-05

volFieldValue volFieldValue_57 write:
    volIntegrate(cz_solid_57) of U = (4.01695e-09 -1.40097e-08 3.19306e-10)

surfaceFieldValue massFlowAtFilter_57 write:
    sum(fz_solid_57) of phi = 4.80751e-05

volFieldValue volFieldValue_58 write:
    volIntegrate(cz_solid_58) of U = (2.72246e-09 -1.13297e-08 -7.98236e-10)

surfaceFieldValue massFlowAtFilter_58 write:
    sum(fz_solid_58) of phi = 4.63414e-05

volFieldValue volFieldValue_59 write:
    volIntegrate(cz_solid_59) of U = (1.70922e-09 -9.84506e-09 -1.33023e-09)

surfaceFieldValue massFlowAtFilter_59 write:
    sum(fz_solid_59) of phi = 4.7314e-05

volFieldValue volFieldValue_60 write:
    volIntegrate(cz_solid_60) of U = (6.97299e-12 -6.34825e-09 2.37559e-10)

surfaceFieldValue massFlowAtFilter_60 write:
    sum(fz_solid_60) of phi = -1.20387e-05

volFieldValue volFieldValue_61 write:
    volIntegrate(cz_solid_61) of U = (3.05591e-11 -5.60017e-09 5.09095e-12)

surfaceFieldValue massFlowAtFilter_61 write:
    sum(fz_solid_61) of phi = -5.77003e-06

volFieldValue volFieldValue_62 write:
    volIntegrate(cz_solid_62) of U = (-4.99305e-11 -5.4441e-09 -6.25697e-11)

surfaceFieldValue massFlowAtFilter_62 write:
    sum(fz_solid_62) of phi = -1.19023e-05

volFieldValue volFieldValue_63 write:
    volIntegrate(cz_solid_63) of U = (-2.00719e-10 -5.02261e-09 -2.11212e-11)

surfaceFieldValue massFlowAtFilter_63 write:
    sum(fz_solid_63) of phi = -1.27537e-05

volFieldValue volFieldValue_64 write:
    volIntegrate(cz_solid_64) of U = (-3.95247e-10 -4.92237e-09 5.12972e-11)

surfaceFieldValue massFlowAtFilter_64 write:
    sum(fz_solid_64) of phi = -1.24724e-05

volFieldValue volFieldValue_65 write:
    volIntegrate(cz_solid_65) of U = (-6.06381e-10 -4.77305e-09 1.68554e-10)

surfaceFieldValue massFlowAtFilter_65 write:
    sum(fz_solid_65) of phi = -1.78563e-05

volFieldValue volFieldValue_66 write:
    volIntegrate(cz_solid_66) of U = (-8.1472e-10 -4.70039e-09 4.33181e-10)

surfaceFieldValue massFlowAtFilter_66 write:
    sum(fz_solid_66) of phi = -2.44962e-05

volFieldValue volFieldValue_67 write:
    volIntegrate(cz_solid_67) of U = (-8.99031e-10 -4.79296e-09 8.87555e-10)

surfaceFieldValue massFlowAtFilter_67 write:
    sum(fz_solid_67) of phi = -2.11105e-05

volFieldValue volFieldValue_68 write:
    volIntegrate(cz_solid_68) of U = (-8.22758e-10 -5.03049e-09 1.38283e-09)

surfaceFieldValue massFlowAtFilter_68 write:
    sum(fz_solid_68) of phi = -3.50559e-05

volFieldValue volFieldValue_69 write:
    volIntegrate(cz_solid_69) of U = (-4.73832e-10 -5.32704e-09 1.96835e-09)

surfaceFieldValue massFlowAtFilter_69 write:
    sum(fz_solid_69) of phi = -1.08733e-06

volFieldValue volFieldValue_70 write:
    volIntegrate(cz_solid_70) of U = (2.69158e-10 -5.86831e-09 2.5396e-09)

surfaceFieldValue massFlowAtFilter_70 write:
    sum(fz_solid_70) of phi = 4.97936e-06

volFieldValue volFieldValue_71 write:
    volIntegrate(cz_solid_71) of U = (1.14762e-09 -6.83296e-09 2.88678e-09)

surfaceFieldValue massFlowAtFilter_71 write:
    sum(fz_solid_71) of phi = -2.70353e-06

volFieldValue volFieldValue_72 write:
    volIntegrate(cz_solid_72) of U = (2.46193e-09 -8.49455e-09 3.06017e-09)

surfaceFieldValue massFlowAtFilter_72 write:
    sum(fz_solid_72) of phi = -2.30865e-05

volFieldValue volFieldValue_73 write:
    volIntegrate(cz_solid_73) of U = (4.11262e-09 -1.10173e-08 3.01637e-09)

surfaceFieldValue massFlowAtFilter_73 write:
    sum(fz_solid_73) of phi = 5.7284e-06

volFieldValue volFieldValue_74 write:
    volIntegrate(cz_solid_74) of U = (6.39915e-09 -1.51494e-08 2.79001e-09)

surfaceFieldValue massFlowAtFilter_74 write:
    sum(fz_solid_74) of phi = -6.75445e-05

volFieldValue volFieldValue_75 write:
    volIntegrate(cz_solid_75) of U = (9.08824e-09 -2.24743e-08 1.90815e-09)

surfaceFieldValue massFlowAtFilter_75 write:
    sum(fz_solid_75) of phi = -6.89457e-05

volFieldValue volFieldValue_76 write:
    volIntegrate(cz_solid_76) of U = (1.00863e-08 -3.37988e-08 1.3454e-09)

surfaceFieldValue massFlowAtFilter_76 write:
    sum(fz_solid_76) of phi = -0.00010302

volFieldValue volFieldValue_77 write:
    volIntegrate(cz_solid_77) of U = (4.01144e-09 -2.92391e-08 7.65706e-09)

surfaceFieldValue massFlowAtFilter_77 write:
    sum(fz_solid_77) of phi = -3.75517e-05

volFieldValue volFieldValue_78 write:
    volIntegrate(cz_solid_78) of U = (-2.23758e-09 -1.06577e-08 1.32006e-09)

surfaceFieldValue massFlowAtFilter_78 write:
    sum(fz_solid_78) of phi = -3.96479e-05

volFieldValue volFieldValue_79 write:
    volIntegrate(cz_solid_79) of U = (-5.0105e-10 -7.26068e-09 5.75494e-10)

surfaceFieldValue massFlowAtFilter_79 write:
    sum(fz_solid_79) of phi = -1.49295e-05

volFieldValue volFieldValue_80 write:
    volIntegrate(cz_solid_80) of U = (-6.81314e-10 -3.33362e-09 1.28903e-09)

surfaceFieldValue massFlowAtFilter_80 write:
    sum(fz_solid_80) of phi = -5.75317e-06

volFieldValue volFieldValue_81 write:
    volIntegrate(cz_solid_81) of U = (-1.94125e-10 -2.80787e-09 8.1787e-10)

surfaceFieldValue massFlowAtFilter_81 write:
    sum(fz_solid_81) of phi = -2.70769e-06

volFieldValue volFieldValue_82 write:
    volIntegrate(cz_solid_82) of U = (-4.07588e-11 -2.53055e-09 5.43506e-10)

surfaceFieldValue massFlowAtFilter_82 write:
    sum(fz_solid_82) of phi = 3.63153e-06

volFieldValue volFieldValue_83 write:
    volIntegrate(cz_solid_83) of U = (-5.16421e-11 -2.23932e-09 4.12685e-10)

surfaceFieldValue massFlowAtFilter_83 write:
    sum(fz_solid_83) of phi = -9.59762e-06

volFieldValue volFieldValue_84 write:
    volIntegrate(cz_solid_84) of U = (-1.63605e-10 -2.11084e-09 3.40803e-10)

surfaceFieldValue massFlowAtFilter_84 write:
    sum(fz_solid_84) of phi = 1.45402e-05

volFieldValue volFieldValue_85 write:
    volIntegrate(cz_solid_85) of U = (-3.01184e-10 -1.98793e-09 3.5191e-10)

surfaceFieldValue massFlowAtFilter_85 write:
    sum(fz_solid_85) of phi = -1.60542e-05

volFieldValue volFieldValue_86 write:
    volIntegrate(cz_solid_86) of U = (-4.50582e-10 -1.87964e-09 5.222e-10)

surfaceFieldValue massFlowAtFilter_86 write:
    sum(fz_solid_86) of phi = -6.3415e-06

volFieldValue volFieldValue_87 write:
    volIntegrate(cz_solid_87) of U = (-4.9354e-10 -1.93648e-09 8.59821e-10)

surfaceFieldValue massFlowAtFilter_87 write:
    sum(fz_solid_87) of phi = -8.51406e-06

volFieldValue volFieldValue_88 write:
    volIntegrate(cz_solid_88) of U = (-4.018e-10 -2.11582e-09 1.23207e-09)

surfaceFieldValue massFlowAtFilter_88 write:
    sum(fz_solid_88) of phi = -1.85738e-05

volFieldValue volFieldValue_89 write:
    volIntegrate(cz_solid_89) of U = (-6.88239e-11 -2.27487e-09 1.70938e-09)

surfaceFieldValue massFlowAtFilter_89 write:
    sum(fz_solid_89) of phi = -1.90829e-05

volFieldValue volFieldValue_90 write:
    volIntegrate(cz_solid_90) of U = (6.21328e-10 -2.57051e-09 2.21892e-09)

surfaceFieldValue massFlowAtFilter_90 write:
    sum(fz_solid_90) of phi = 1.98913e-05

volFieldValue volFieldValue_91 write:
    volIntegrate(cz_solid_91) of U = (1.50568e-09 -2.9877e-09 2.52967e-09)

surfaceFieldValue massFlowAtFilter_91 write:
    sum(fz_solid_91) of phi = 8.19884e-06

volFieldValue volFieldValue_92 write:
    volIntegrate(cz_solid_92) of U = (2.96829e-09 -3.68467e-09 2.63021e-09)

surfaceFieldValue massFlowAtFilter_92 write:
    sum(fz_solid_92) of phi = 5.12027e-05

volFieldValue volFieldValue_93 write:
    volIntegrate(cz_solid_93) of U = (5.01794e-09 -5.05032e-09 2.50538e-09)

surfaceFieldValue massFlowAtFilter_93 write:
    sum(fz_solid_93) of phi = 7.94102e-05

volFieldValue volFieldValue_94 write:
    volIntegrate(cz_solid_94) of U = (8.40231e-09 -7.08689e-09 2.14989e-09)

surfaceFieldValue massFlowAtFilter_94 write:
    sum(fz_solid_94) of phi = 0.000128462

volFieldValue volFieldValue_95 write:
[...]

surfaceFieldValue massFlowAtFilter_73 write:
    sum(fz_solid_73) of phi = -5.24363e-05

volFieldValue volFieldValue_74 write:
    volIntegrate(cz_solid_74) of U = (-1.07594e-09 1.19654e-07 -6.17003e-10)

surfaceFieldValue massFlowAtFilter_74 write:
    sum(fz_solid_74) of phi = 0.000225375

volFieldValue volFieldValue_75 write:
    volIntegrate(cz_solid_75) of U = (-1.16964e-09 1.59936e-07 -7.19889e-10)

surfaceFieldValue massFlowAtFilter_75 write:
    sum(fz_solid_75) of phi = 5.5364e-05

volFieldValue volFieldValue_76 write:
    volIntegrate(cz_solid_76) of U = (-9.39683e-10 9.41899e-08 -5.65466e-10)

surfaceFieldValue massFlowAtFilter_76 write:
    sum(fz_solid_76) of phi = -3.14877e-05

volFieldValue volFieldValue_77 write:
    volIntegrate(cz_solid_77) of U = (-7.33254e-10 6.52486e-08 -1.14983e-10)

surfaceFieldValue massFlowAtFilter_77 write:
    sum(fz_solid_77) of phi = -4.73171e-06

volFieldValue volFieldValue_78 write:
    volIntegrate(cz_solid_78) of U = (-6.79932e-10 7.13081e-08 1.62919e-10)

surfaceFieldValue massFlowAtFilter_78 write:
    sum(fz_solid_78) of phi = -0.000187071

volFieldValue volFieldValue_79 write:
    volIntegrate(cz_solid_79) of U = (-6.95375e-10 3.95325e-08 6.18315e-10)

surfaceFieldValue massFlowAtFilter_79 write:
    sum(fz_solid_79) of phi = -3.44532e-05

volFieldValue volFieldValue_80 write:
    volIntegrate(cz_solid_80) of U = (-6.03605e-10 -1.42976e-08 5.73577e-10)

surfaceFieldValue massFlowAtFilter_80 write:
    sum(fz_solid_80) of phi = -0.000104163

volFieldValue volFieldValue_81 write:
    volIntegrate(cz_solid_81) of U = (-9.69899e-10 -3.56118e-08 5.91817e-10)

surfaceFieldValue massFlowAtFilter_81 write:
    sum(fz_solid_81) of phi = -8.73333e-05

volFieldValue volFieldValue_82 write:
    volIntegrate(cz_solid_82) of U = (-1.43718e-09 -4.62469e-08 2.18648e-09)

surfaceFieldValue massFlowAtFilter_82 write:
    sum(fz_solid_82) of phi = 9.07588e-05

volFieldValue volFieldValue_83 write:
    volIntegrate(cz_solid_83) of U = (-2.08697e-09 -5.22113e-08 4.2327e-09)

surfaceFieldValue massFlowAtFilter_83 write:
    sum(fz_solid_83) of phi = -4.6681e-05

volFieldValue volFieldValue_84 write:
    volIntegrate(cz_solid_84) of U = (-9.03351e-10 -5.61506e-08 8.65194e-09)

surfaceFieldValue massFlowAtFilter_84 write:
    sum(fz_solid_84) of phi = 0.00043624

volFieldValue volFieldValue_85 write:
    volIntegrate(cz_solid_85) of U = (3.03393e-09 -5.34665e-08 9.76792e-09)

surfaceFieldValue massFlowAtFilter_85 write:
    sum(fz_solid_85) of phi = -0.000959493

volFieldValue volFieldValue_86 write:
    volIntegrate(cz_solid_86) of U = (6.07029e-09 -5.10247e-08 7.85572e-09)

surfaceFieldValue massFlowAtFilter_86 write:
    sum(fz_solid_86) of phi = -0.000170163

volFieldValue volFieldValue_87 write:
    volIntegrate(cz_solid_87) of U = (4.82969e-09 6.67027e-09 6.06355e-09)

surfaceFieldValue massFlowAtFilter_87 write:
    sum(fz_solid_87) of phi = 0.00071617

volFieldValue volFieldValue_88 write:
    volIntegrate(cz_solid_88) of U = (8.06446e-09 9.45891e-09 4.76618e-09)

surfaceFieldValue massFlowAtFilter_88 write:
    sum(fz_solid_88) of phi = -0.0014143

volFieldValue volFieldValue_89 write:
    volIntegrate(cz_solid_89) of U = (6.19849e-09 7.16637e-09 -3.11941e-10)

surfaceFieldValue massFlowAtFilter_89 write:
    sum(fz_solid_89) of phi = -0.000826723

volFieldValue volFieldValue_90 write:
    volIntegrate(cz_solid_90) of U = (2.90879e-09 -1.94134e-08 -2.25388e-09)

surfaceFieldValue massFlowAtFilter_90 write:
    sum(fz_solid_90) of phi = -0.000456733

volFieldValue volFieldValue_91 write:
    volIntegrate(cz_solid_91) of U = (1.49371e-09 -6.95828e-08 -1.21973e-09)

surfaceFieldValue massFlowAtFilter_91 write:
    sum(fz_solid_91) of phi = 0.000178652

volFieldValue volFieldValue_92 write:
    volIntegrate(cz_solid_92) of U = (8.02254e-10 -8.25054e-08 -1.42055e-09)

surfaceFieldValue massFlowAtFilter_92 write:
    sum(fz_solid_92) of phi = 0.000163432

volFieldValue volFieldValue_93 write:
    volIntegrate(cz_solid_93) of U = (-7.67433e-10 -6.63473e-08 -2.29951e-09)

surfaceFieldValue massFlowAtFilter_93 write:
    sum(fz_solid_93) of phi = 6.0606e-05

volFieldValue volFieldValue_94 write:
    volIntegrate(cz_solid_94) of U = (-2.8344e-09 -4.65404e-09 -1.33939e-09)

surfaceFieldValue massFlowAtFilter_94 write:
    sum(fz_solid_94) of phi = 0.000770189

volFieldValue volFieldValue_95 write:
    volIntegrate(cz_solid_95) of U = (-1.90407e-09 4.54654e-08 -1.11707e-09)

surfaceFieldValue massFlowAtFilter_95 write:
    sum(fz_solid_95) of phi = -0.000157005

volFieldValue volFieldValue_96 write:
    volIntegrate(cz_solid_96) of U = (-1.12382e-09 5.90343e-08 -8.28048e-10)

surfaceFieldValue massFlowAtFilter_96 write:
    sum(fz_solid_96) of phi = 7.29798e-06

volFieldValue volFieldValue_97 write:
    volIntegrate(cz_solid_97) of U = (-6.44151e-10 6.15673e-08 -7.07169e-11)

surfaceFieldValue massFlowAtFilter_97 write:
    sum(fz_solid_97) of phi = 0.000237958

volFieldValue volFieldValue_98 write:
    volIntegrate(cz_solid_98) of U = (-5.87659e-10 3.98657e-08 1.80928e-10)

surfaceFieldValue massFlowAtFilter_98 write:
    sum(fz_solid_98) of phi = -0.000204156

volFieldValue volFieldValue_99 write:
    volIntegrate(cz_solid_99) of U = (-6.03627e-10 1.82779e-08 4.03234e-10)

surfaceFieldValue massFlowAtFilter_99 write:
    sum(fz_solid_99) of phi = 0.000240664

Time = 1021

DILUPBiCG:  Solving for Ux, Initial residual = 1.62955e-07, Final residual = 1.62955e-07, No Iterations 0
DILUPBiCG:  Solving for Uy, Initial residual = 1.36422e-07, Final residual = 1.36422e-07, No Iterations 0
DILUPBiCG:  Solving for Uz, Initial residual = 4.18078e-07, Final residual = 4.18078e-07, No Iterations 0
DICPCG:  Solving for p, Initial residual = 0.00101427, Final residual = 0.000100482, No Iterations 12
DICPCG:  Solving for p, Initial residual = 0.000236706, Final residual = 2.35763e-05, No Iterations 86
DICPCG:  Solving for p, Initial residual = 6.10673e-05, Final residual = 9.91796e-06, No Iterations 26
time step continuity errors : sum local = 9.39772e-05, global = -1.83878e-05, cumulative = -0.00646047
DILUPBiCG:  Solving for epsilon, Initial residual = 0.000766434, Final residual = 4.46755e-07, No Iterations 3
DILUPBiCG:  Solving for k, Initial residual = 0.000830359, Final residual = 4.1605e-07, No Iterations 3
ExecutionTime = 2424.81 s  ClockTime = 2516 s

Time = 1022

DILUPBiCG:  Solving for Ux, Initial residual = 1.62364e-07, Final residual = 1.62364e-07, No Iterations 0
DILUPBiCG:  Solving for Uy, Initial residual = 1.36448e-07, Final residual = 1.36448e-07, No Iterations 0
DILUPBiCG:  Solving for Uz, Initial residual = 4.15701e-07, Final residual = 4.15701e-07, No Iterations 0
DICPCG:  Solving for p, Initial residual = 0.00100918, Final residual = 0.000100065, No Iterations 12
DICPCG:  Solving for p, Initial residual = 0.000235787, Final residual = 2.27632e-05, No Iterations 87
DICPCG:  Solving for p, Initial residual = 6.07583e-05, Final residual = 9.54274e-06, No Iterations 28
time step continuity errors : sum local = 9.03895e-05, global = -1.89299e-05, cumulative = -0.0064794
DILUPBiCG:  Solving for epsilon, Initial residual = 0.000765362, Final residual = 9.46974e-06, No Iterations 2
DILUPBiCG:  Solving for k, Initial residual = 0.000828835, Final residual = 4.10208e-07, No Iterations 3
ExecutionTime = 2426.92 s  ClockTime = 2518 s

Time = 1023

DILUPBiCG:  Solving for Ux, Initial residual = 1.61784e-07, Final residual = 1.61784e-07, No Iterations 0
DILUPBiCG:  Solving for Uy, Initial residual = 1.36476e-07, Final residual = 1.36476e-07, No Iterations 0
DILUPBiCG:  Solving for Uz, Initial residual = 4.13312e-07, Final residual = 4.13312e-07, No Iterations 0
DICPCG:  Solving for p, Initial residual = 0.00101517, Final residual = 0.000101304, No Iterations 12
DICPCG:  Solving for p, Initial residual = 0.00023814, Final residual = 2.33487e-05, No Iterations 87
DICPCG:  Solving for p, Initial residual = 6.12164e-05, Final residual = 9.8525e-06, No Iterations 27
time step continuity errors : sum local = 9.3261e-05, global = -2.23267e-05, cumulative = -0.00650173
DILUPBiCG:  Solving for epsilon, Initial residual = 0.000764218, Final residual = 4.31701e-07, No Iterations 3
bounding epsilon, min: -0.00372167 max: 11629.9 average: 51.3811
DILUPBiCG:  Solving for k, Initial residual = 0.000827328, Final residual = 4.13564e-07, No Iterations 3
ExecutionTime = 2429.1 s  ClockTime = 2521 s

Time = 1024

DILUPBiCG:  Solving for Ux, Initial residual = 1.61217e-07, Final residual = 1.61217e-07, No Iterations 0
DILUPBiCG:  Solving for Uy, Initial residual = 1.36518e-07, Final residual = 1.36518e-07, No Iterations 0
DILUPBiCG:  Solving for Uz, Initial residual = 4.10965e-07, Final residual = 4.10965e-07, No Iterations 0
DICPCG:  Solving for p, Initial residual = 0.00101059, Final residual = 9.99825e-05, No Iterations 12
DICPCG:  Solving for p, Initial residual = 0.00023595, Final residual = 2.32964e-05, No Iterations 88
DICPCG:  Solving for p, Initial residual = 6.08739e-05, Final residual = 9.78793e-06, No Iterations 29
time step continuity errors : sum local = 9.25678e-05, global = -2.51819e-05, cumulative = -0.00652691
DILUPBiCG:  Solving for epsilon, Initial residual = 0.000763092, Final residual = 9.53756e-06, No Iterations 2
bounding epsilon, min: -0.00043872 max: 11629.9 average: 51.3879
DILUPBiCG:  Solving for k, Initial residual = 0.000825768, Final residual = 4.07466e-07, No Iterations 3
ExecutionTime = 2431.28 s  ClockTime = 2523 s

Time = 1025

DILUPBiCG:  Solving for Ux, Initial residual = 1.60658e-07, Final residual = 1.60658e-07, No Iterations 0
DILUPBiCG:  Solving for Uy, Initial residual = 1.36559e-07, Final residual = 1.36559e-07, No Iterations 0
DILUPBiCG:  Solving for Uz, Initial residual = 4.08593e-07, Final residual = 4.08593e-07, No Iterations 0
DICPCG:  Solving for p, Initial residual = 0.00101366, Final residual = 9.83907e-05, No Iterations 12
DICPCG:  Solving for p, Initial residual = 0.000235282, Final residual = 2.34672e-05, No Iterations 97
DICPCG:  Solving for p, Initial residual = 6.09076e-05, Final residual = 9.62172e-06, No Iterations 258
time step continuity errors : sum local = 9.09232e-05, global = 4.49078e-07, cumulative = -0.00652646
DILUPBiCG:  Solving for epsilon, Initial residual = 0.000762115, Final residual = 4.29924e-07, No Iterations 3
bounding epsilon, min: -0.00151207 max: 11629.9 average: 51.3946
DILUPBiCG:  Solving for k, Initial residual = 0.00082434, Final residual = 4.1052e-07, No Iterations 3
ExecutionTime = 2435.43 s  ClockTime = 2527 s

Time = 1026

DILUPBiCG:  Solving for Ux, Initial residual = 1.60164e-07, Final residual = 1.60164e-07, No Iterations 0
DILUPBiCG:  Solving for Uy, Initial residual = 1.36699e-07, Final residual = 1.36699e-07, No Iterations 0
DILUPBiCG:  Solving for Uz, Initial residual = 4.06323e-07, Final residual = 4.06323e-07, No Iterations 0
DICPCG:  Solving for p, Initial residual = 0.00101023, Final residual = 0.000100016, No Iterations 12
DICPCG:  Solving for p, Initial residual = 0.000235896, Final residual = 2.27661e-05, No Iterations 86
DICPCG:  Solving for p, Initial residual = 6.0337e-05, Final residual = 9.80953e-06, No Iterations 28
time step continuity errors : sum local = 9.28087e-05, global = -1.86106e-05, cumulative = -0.00654507
DILUPBiCG:  Solving for epsilon, Initial residual = 0.000760958, Final residual = 9.46306e-06, No Iterations 2
DILUPBiCG:  Solving for k, Initial residual = 0.000822785, Final residual = 4.04088e-07, No Iterations 3
ExecutionTime = 2437.53 s  ClockTime = 2529 s

Time = 1027

DILUPBiCG:  Solving for Ux, Initial residual = 1.59631e-07, Final residual = 1.59631e-07, No Iterations 0
DILUPBiCG:  Solving for Uy, Initial residual = 1.36741e-07, Final residual = 1.36741e-07, No Iterations 0
DILUPBiCG:  Solving for Uz, Initial residual = 4.0396e-07, Final residual = 4.0396e-07, No Iterations 0
DICPCG:  Solving for p, Initial residual = 0.00100936, Final residual = 9.85499e-05, No Iterations 12
DICPCG:  Solving for p, Initial residual = 0.000234761, Final residual = 2.28551e-05, No Iterations 58
DICPCG:  Solving for p, Initial residual = 6.04851e-05, Final residual = 8.74814e-06, No Iterations 73
time step continuity errors : sum local = 8.27066e-05, global = -1.71085e-05, cumulative = -0.00656218
DILUPBiCG:  Solving for epsilon, Initial residual = 0.000759931, Final residual = 4.14381e-07, No Iterations 3
DILUPBiCG:  Solving for k, Initial residual = 0.000821316, Final residual = 4.06798e-07, No Iterations 3
ExecutionTime = 2439.8 s  ClockTime = 2531 s

Time = 1028

DILUPBiCG:  Solving for Ux, Initial residual = 1.59097e-07, Final residual = 1.59097e-07, No Iterations 0
DILUPBiCG:  Solving for Uy, Initial residual = 1.36804e-07, Final residual = 1.36804e-07, No Iterations 0
DILUPBiCG:  Solving for Uz, Initial residual = 4.01693e-07, Final residual = 4.01693e-07, No Iterations 0
DICPCG:  Solving for p, Initial residual = 0.00100748, Final residual = 9.88859e-05, No Iterations 12
DICPCG:  Solving for p, Initial residual = 0.000234606, Final residual = 2.28658e-05, No Iterations 85
DICPCG:  Solving for p, Initial residual = 6.0159e-05, Final residual = 9.74362e-06, No Iterations 28
time step continuity errors : sum local = 9.20649e-05, global = -1.68212e-05, cumulative = -0.006579
DILUPBiCG:  Solving for epsilon, Initial residual = 0.000758865, Final residual = 9.54199e-06, No Iterations 2
DILUPBiCG:  Solving for k, Initial residual = 0.000819778, Final residual = 4.00246e-07, No Iterations 3
ExecutionTime = 2441.89 s  ClockTime = 2533 s

Time = 1029

DILUPBiCG:  Solving for Ux, Initial residual = 1.58589e-07, Final residual = 1.58589e-07, No Iterations 0
DILUPBiCG:  Solving for Uy, Initial residual = 1.36863e-07, Final residual = 1.36863e-07, No Iterations 0
DILUPBiCG:  Solving for Uz, Initial residual = 3.99379e-07, Final residual = 3.99379e-07, No Iterations 0
DICPCG:  Solving for p, Initial residual = 0.00101048, Final residual = 9.78108e-05, No Iterations 12
DICPCG:  Solving for p, Initial residual = 0.000233706, Final residual = 2.27603e-05, No Iterations 57
DICPCG:  Solving for p, Initial residual = 6.01209e-05, Final residual = 9.93503e-06, No Iterations 71
time step continuity errors : sum local = 9.38191e-05, global = -1.75459e-05, cumulative = -0.00659655
DILUPBiCG:  Solving for epsilon, Initial residual = 0.000757648, Final residual = 4.03312e-07, No Iterations 3
bounding epsilon, min: -0.0048811 max: 11629.9 average: 51.4203
DILUPBiCG:  Solving for k, Initial residual = 0.000818266, Final residual = 4.02739e-07, No Iterations 3
ExecutionTime = 2444.15 s  ClockTime = 2536 s

Time = 1030

DILUPBiCG:  Solving for Ux, Initial residual = 1.58076e-07, Final residual = 1.58076e-07, No Iterations 0
DILUPBiCG:  Solving for Uy, Initial residual = 1.36936e-07, Final residual = 1.36936e-07, No Iterations 0
DILUPBiCG:  Solving for Uz, Initial residual = 3.97137e-07, Final residual = 3.97137e-07, No Iterations 0
DICPCG:  Solving for p, Initial residual = 0.0010037, Final residual = 9.78011e-05, No Iterations 12
DICPCG:  Solving for p, Initial residual = 0.000233314, Final residual = 2.2996e-05, No Iterations 85
DICPCG:  Solving for p, Initial residual = 6.00727e-05, Final residual = 9.7558e-06, No Iterations 29
time step continuity errors : sum local = 9.20844e-05, global = -1.92979e-05, cumulative = -0.00661584
DILUPBiCG:  Solving for epsilon, Initial residual = 0.000756588, Final residual = 9.49837e-06, No Iterations 2
DILUPBiCG:  Solving for k, Initial residual = 0.00081671, Final residual = 3.96207e-07, No Iterations 3
ExecutionTime = 2446.27 s  ClockTime = 2538 s

Time = 1031

DILUPBiCG:  Solving for Ux, Initial residual = 1.5758e-07, Final residual = 1.5758e-07, No Iterations 0
DILUPBiCG:  Solving for Uy, Initial residual = 1.37006e-07, Final residual = 1.37006e-07, No Iterations 0
DILUPBiCG:  Solving for Uz, Initial residual = 3.9486e-07, Final residual = 3.9486e-07, No Iterations 0
DICPCG:  Solving for p, Initial residual = 0.00100724, Final residual = 9.93694e-05, No Iterations 12
DICPCG:  Solving for p, Initial residual = 0.00023535, Final residual = 2.2444e-05, No Iterations 58
DICPCG:  Solving for p, Initial residual = 5.97816e-05, Final residual = 9.86143e-06, No Iterations 74
time step continuity errors : sum local = 9.30375e-05, global = -2.14235e-05, cumulative = -0.00663727
DILUPBiCG:  Solving for epsilon, Initial residual = 0.000755444, Final residual = 3.93463e-07, No Iterations 3
bounding epsilon, min: -0.00603407 max: 11629.9 average: 51.4322
DILUPBiCG:  Solving for k, Initial residual = 0.000815176, Final residual = 3.98735e-07, No Iterations 3
ExecutionTime = 2448.57 s  ClockTime = 2540 s

Time = 1032

DILUPBiCG:  Solving for Ux, Initial residual = 1.57082e-07, Final residual = 1.57082e-07, No Iterations 0
DILUPBiCG:  Solving for Uy, Initial residual = 1.37092e-07, Final residual = 1.37092e-07, No Iterations 0
DILUPBiCG:  Solving for Uz, Initial residual = 3.9267e-07, Final residual = 3.9267e-07, No Iterations 0
DICPCG:  Solving for p, Initial residual = 0.00100507, Final residual = 9.76639e-05, No Iterations 12
DICPCG:  Solving for p, Initial residual = 0.000234032, Final residual = 2.28243e-05, No Iterations 86
DICPCG:  Solving for p, Initial residual = 5.97079e-05, Final residual = 9.73911e-06, No Iterations 248
time step continuity errors : sum local = 9.18518e-05, global = -1.16961e-07, cumulative = -0.00663738
DILUPBiCG:  Solving for epsilon, Initial residual = 0.000754593, Final residual = 9.88628e-06, No Iterations 2
bounding epsilon, min: -0.00249687 max: 11629.9 average: 51.4379
DILUPBiCG:  Solving for k, Initial residual = 0.000813695, Final residual = 3.92329e-07, No Iterations 3
ExecutionTime = 2452.51 s  ClockTime = 2544 s

Time = 1033

DILUPBiCG:  Solving for Ux, Initial residual = 1.56638e-07, Final residual = 1.56638e-07, No Iterations 0
DILUPBiCG:  Solving for Uy, Initial residual = 1.37248e-07, Final residual = 1.37248e-07, No Iterations 0
DILUPBiCG:  Solving for Uz, Initial residual = 3.90521e-07, Final residual = 3.90521e-07, No Iterations 0
DICPCG:  Solving for p, Initial residual = 0.00100642, Final residual = 9.75605e-05, No Iterations 12
DICPCG:  Solving for p, Initial residual = 0.000233296, Final residual = 2.33137e-05, No Iterations 55
DICPCG:  Solving for p, Initial residual = 5.96228e-05, Final residual = 9.92629e-06, No Iterations 63
time step continuity errors : sum local = 9.37315e-05, global = -1.75242e-05, cumulative = -0.00665491
DILUPBiCG:  Solving for epsilon, Initial residual = 0.000753392, Final residual = 3.84747e-07, No Iterations 3
DILUPBiCG:  Solving for k, Initial residual = 0.000812161, Final residual = 3.94599e-07, No Iterations 3
ExecutionTime = 2454.67 s  ClockTime = 2546 s

Time = 1034

DILUPBiCG:  Solving for Ux, Initial residual = 1.56146e-07, Final residual = 1.56146e-07, No Iterations 0
DILUPBiCG:  Solving for Uy, Initial residual = 1.37337e-07, Final residual = 1.37337e-07, No Iterations 0
DILUPBiCG:  Solving for Uz, Initial residual = 3.88311e-07, Final residual = 3.88311e-07, No Iterations 0
DICPCG:  Solving for p, Initial residual = 0.000998895, Final residual = 9.82467e-05, No Iterations 12
DICPCG:  Solving for p, Initial residual = 0.000233136, Final residual = 2.323e-05, No Iterations 59
DICPCG:  Solving for p, Initial residual = 6.01633e-05, Final residual = 9.17106e-06, No Iterations 73
time step continuity errors : sum local = 8.65797e-05, global = -1.44706e-05, cumulative = -0.00666938
DILUPBiCG:  Solving for epsilon, Initial residual = 0.000752295, Final residual = 9.77768e-06, No Iterations 2
bounding epsilon, min: -0.00272292 max: 11629.9 average: 51.4495
DILUPBiCG:  Solving for k, Initial residual = 0.000810622, Final residual = 3.88182e-07, No Iterations 3
ExecutionTime = 2456.92 s  ClockTime = 2548 s


SIMPLE solution converged in 1034 iterations

End

Finalising parallel run
