/*---------------------------------------------------------------------------*\
  =========                 |
  \\      /  F ield         | OpenFOAM: The Open Source CFD Toolbox
   \\    /   O peration     | Website:  https://openfoam.org
    \\  /    A nd           | Version:  6
     \\/     M anipulation  |
\*---------------------------------------------------------------------------*/
Build  : 6
Exec   : bouSimpleFoam -parallel
Date   : Aug 09 2020
Time   : 10:34:46
Host   : "emps-ugcs1"
PID    : 24396
I/O    : uncollated
Case   : /home/links/jjw230/Second_Extra/Case20
nProcs : 4
Slaves : 
3
(
"emps-ugcs1.24397"
"emps-ugcs1.24398"
"emps-ugcs1.24400"
)

Pstream initialized with:
    floatTransfer      : 0
    nProcsSimpleSum    : 0
    commsType          : nonBlocking
    polling iterations : 0
sigFpe : Enabling floating point exception trapping (FOAM_SIGFPE).
fileModificationChecking : Monitoring run-time modified files using timeStampMaster (fileModificationSkew 10)
allowSystemOperations : Allowing user-supplied system call operations

// * * * * * * * * * * * * * * * * * * * * * * * * * * * * * * * * * * * * * //
Create time

Create mesh for time = 0


SIMPLE: Convergence criteria found
        p: tolerance 0.001
        U: tolerance 0.001
        "(k|epsilon)": tolerance 0.001
        theta: tolerance 0.001

Reading field p

Reading field U

Reading field theta

Reading/calculating face flux field phi

Selecting incompressible transport model Newtonian
Selecting turbulence model type RAS
Selecting RAS turbulence model RNGkEpsilon
RAS
{
    RASModel        RNGkEpsilon;
    turbulence      on;
    printCoeffs     on;
    Cmu             0.0845;
    C1              1.42;
    C2              1.68;
    C3              0;
    sigmak          0.71942;
    sigmaEps        0.71942;
    eta0            4.38;
    beta            0.012;
}

No MRF models present

Creating finite volume options from "system/fvOptions"

Selecting finite volume options model type explicitPorositySource
    Source: source0
    - selecting cells using cellZone cz_solid_0
    - selected 2318 cell(s) with volume 0.00214555
Porosity region source0:
    selecting model: DarcyForchheimer
    creating porous zone: cz_solid_0
Selecting finite volume options model type explicitPorositySource
    Source: source1
    - selecting cells using cellZone cz_solid_1
    - selected 2452 cell(s) with volume 0.00214196
Porosity region source1:
    selecting model: DarcyForchheimer
    creating porous zone: cz_solid_1
Selecting finite volume options model type explicitPorositySource
    Source: source2
    - selecting cells using cellZone cz_solid_2
    - selected 2346 cell(s) with volume 0.00214578
Porosity region source2:
    selecting model: DarcyForchheimer
    creating porous zone: cz_solid_2
Selecting finite volume options model type explicitPorositySource
    Source: source3
    - selecting cells using cellZone cz_solid_3
    - selected 2089 cell(s) with volume 0.00214075
Porosity region source3:
    selecting model: DarcyForchheimer
    creating porous zone: cz_solid_3
Selecting finite volume options model type explicitPorositySource
    Source: source4
    - selecting cells using cellZone cz_solid_4
    - selected 2326 cell(s) with volume 0.00214492
Porosity region source4:
    selecting model: DarcyForchheimer
    creating porous zone: cz_solid_4
Selecting finite volume options model type explicitPorositySource
    Source: source5
    - selecting cells using cellZone cz_solid_5
    - selected 1880 cell(s) with volume 0.00214169
Porosity region source5:
    selecting model: DarcyForchheimer
    creating porous zone: cz_solid_5
Selecting finite volume options model type explicitPorositySource
    Source: source6
    - selecting cells using cellZone cz_solid_6
    - selected 2174 cell(s) with volume 0.00214462
Porosity region source6:
    selecting model: DarcyForchheimer
    creating porous zone: cz_solid_6
Selecting finite volume options model type explicitPorositySource
    Source: source7
    - selecting cells using cellZone cz_solid_7
    - selected 2094 cell(s) with volume 0.00214456
Porosity region source7:
    selecting model: DarcyForchheimer
    creating porous zone: cz_solid_7
Selecting finite volume options model type explicitPorositySource
    Source: source8
    - selecting cells using cellZone cz_solid_8
    - selected 1733 cell(s) with volume 0.00214311
Porosity region source8:
    selecting model: DarcyForchheimer
    creating porous zone: cz_solid_8
Selecting finite volume options model type explicitPorositySource
    Source: source9
    - selecting cells using cellZone cz_solid_9
    - selected 2083 cell(s) with volume 0.00214285
Porosity region source9:
    selecting model: DarcyForchheimer
    creating porous zone: cz_solid_9
Selecting finite volume options model type explicitPorositySource
    Source: source10
    - selecting cells using cellZone cz_solid_10
    - selected 2281 cell(s) with volume 0.00214538
Porosity region source10:
    selecting model: DarcyForchheimer
    creating porous zone: cz_solid_10
Selecting finite volume options model type explicitPorositySource
    Source: source11
    - selecting cells using cellZone cz_solid_11
    - selected 2356 cell(s) with volume 0.00214352
Porosity region source11:
    selecting model: DarcyForchheimer
    creating porous zone: cz_solid_11
Selecting finite volume options model type explicitPorositySource
    Source: source12
    - selecting cells using cellZone cz_solid_12
    - selected 2358 cell(s) with volume 0.00214464
Porosity region source12:
    selecting model: DarcyForchheimer
    creating porous zone: cz_solid_12
Selecting finite volume options model type explicitPorositySource
    Source: source13
    - selecting cells using cellZone cz_solid_13
    - selected 2004 cell(s) with volume 0.00214296
Porosity region source13:
    selecting model: DarcyForchheimer
    creating porous zone: cz_solid_13
Selecting finite volume options model type explicitPorositySource
    Source: source14
    - selecting cells using cellZone cz_solid_14
    - selected 1880 cell(s) with volume 0.00214435
Porosity region source14:
    selecting model: DarcyForchheimer
    creating porous zone: cz_solid_14
Selecting finite volume options model type explicitPorositySource
    Source: source15
    - selecting cells using cellZone cz_solid_15
    - selected 2114 cell(s) with volume 0.00214215
Porosity region source15:
    selecting model: DarcyForchheimer
    creating porous zone: cz_solid_15
Selecting finite volume options model type explicitPorositySource
    Source: source16
    - selecting cells using cellZone cz_solid_16
    - selected 2244 cell(s) with volume 0.00214181
Porosity region source16:
    selecting model: DarcyForchheimer
    creating porous zone: cz_solid_16
Selecting finite volume options model type explicitPorositySource
    Source: source17
    - selecting cells using cellZone cz_solid_17
    - selected 2319 cell(s) with volume 0.00214534
Porosity region source17:
    selecting model: DarcyForchheimer
    creating porous zone: cz_solid_17
Selecting finite volume options model type explicitPorositySource
    Source: source18
    - selecting cells using cellZone cz_solid_18
    - selected 2361 cell(s) with volume 0.00214498
Porosity region source18:
    selecting model: DarcyForchheimer
    creating porous zone: cz_solid_18
Selecting finite volume options model type explicitPorositySource
    Source: source19
    - selecting cells using cellZone cz_solid_19
    - selected 1815 cell(s) with volume 0.00213925
Porosity region source19:
    selecting model: DarcyForchheimer
    creating porous zone: cz_solid_19
Selecting finite volume options model type explicitPorositySource
    Source: source20
    - selecting cells using cellZone cz_solid_20
    - selected 2328 cell(s) with volume 0.00214493
Porosity region source20:
    selecting model: DarcyForchheimer
    creating porous zone: cz_solid_20
Selecting finite volume options model type explicitPorositySource
    Source: source21
    - selecting cells using cellZone cz_solid_21
    - selected 2444 cell(s) with volume 0.00214202
Porosity region source21:
    selecting model: DarcyForchheimer
    creating porous zone: cz_solid_21
Selecting finite volume options model type explicitPorositySource
    Source: source22
    - selecting cells using cellZone cz_solid_22
    - selected 2328 cell(s) with volume 0.00214556
Porosity region source22:
    selecting model: DarcyForchheimer
    creating porous zone: cz_solid_22
Selecting finite volume options model type explicitPorositySource
    Source: source23
    - selecting cells using cellZone cz_solid_23
    - selected 2088 cell(s) with volume 0.00214077
Porosity region source23:
    selecting model: DarcyForchheimer
    creating porous zone: cz_solid_23
Selecting finite volume options model type explicitPorositySource
    Source: source24
    - selecting cells using cellZone cz_solid_24
    - selected 2332 cell(s) with volume 0.00214486
Porosity region source24:
    selecting model: DarcyForchheimer
    creating porous zone: cz_solid_24
Selecting finite volume options model type explicitPorositySource
    Source: source25
    - selecting cells using cellZone cz_solid_25
    - selected 1892 cell(s) with volume 0.00214102
Porosity region source25:
    selecting model: DarcyForchheimer
    creating porous zone: cz_solid_25
Selecting finite volume options model type explicitPorositySource
    Source: source26
    - selecting cells using cellZone cz_solid_26
    - selected 2164 cell(s) with volume 0.00214446
Porosity region source26:
    selecting model: DarcyForchheimer
    creating porous zone: cz_solid_26
Selecting finite volume options model type explicitPorositySource
    Source: source27
    - selecting cells using cellZone cz_solid_27
    - selected 2090 cell(s) with volume 0.00214473
Porosity region source27:
    selecting model: DarcyForchheimer
    creating porous zone: cz_solid_27
Selecting finite volume options model type explicitPorositySource
    Source: source28
    - selecting cells using cellZone cz_solid_28
    - selected 1738 cell(s) with volume 0.00214294
Porosity region source28:
    selecting model: DarcyForchheimer
    creating porous zone: cz_solid_28
Selecting finite volume options model type explicitPorositySource
    Source: source29
    - selecting cells using cellZone cz_solid_29
    - selected 2074 cell(s) with volume 0.0021428
Porosity region source29:
    selecting model: DarcyForchheimer
    creating porous zone: cz_solid_29
Selecting finite volume options model type explicitPorositySource
    Source: source30
    - selecting cells using cellZone cz_solid_30
    - selected 2292 cell(s) with volume 0.00214513
Porosity region source30:
    selecting model: DarcyForchheimer
    creating porous zone: cz_solid_30
Selecting finite volume options model type explicitPorositySource
    Source: source31
    - selecting cells using cellZone cz_solid_31
    - selected 2368 cell(s) with volume 0.00214363
Porosity region source31:
    selecting model: DarcyForchheimer
    creating porous zone: cz_solid_31
Selecting finite volume options model type explicitPorositySource
    Source: source32
    - selecting cells using cellZone cz_solid_32
    - selected 2348 cell(s) with volume 0.0021446
Porosity region source32:
    selecting model: DarcyForchheimer
    creating porous zone: cz_solid_32
Selecting finite volume options model type explicitPorositySource
    Source: source33
    - selecting cells using cellZone cz_solid_33
    - selected 1996 cell(s) with volume 0.00214287
Porosity region source33:
    selecting model: DarcyForchheimer
    creating porous zone: cz_solid_33
Selecting finite volume options model type explicitPorositySource
    Source: source34
    - selecting cells using cellZone cz_solid_34
    - selected 1892 cell(s) with volume 0.00214427
Porosity region source34:
    selecting model: DarcyForchheimer
    creating porous zone: cz_solid_34
Selecting finite volume options model type explicitPorositySource
    Source: source35
    - selecting cells using cellZone cz_solid_35
    - selected 2106 cell(s) with volume 0.00214154
Porosity region source35:
    selecting model: DarcyForchheimer
    creating porous zone: cz_solid_35
Selecting finite volume options model type explicitPorositySource
    Source: source36
    - selecting cells using cellZone cz_solid_36
    - selected 2256 cell(s) with volume 0.00214186
Porosity region source36:
    selecting model: DarcyForchheimer
    creating porous zone: cz_solid_36
Selecting finite volume options model type explicitPorositySource
    Source: source37
    - selecting cells using cellZone cz_solid_37
    - selected 2332 cell(s) with volume 0.00214482
Porosity region source37:
    selecting model: DarcyForchheimer
    creating porous zone: cz_solid_37
Selecting finite volume options model type explicitPorositySource
    Source: source38
    - selecting cells using cellZone cz_solid_38
    - selected 2346 cell(s) with volume 0.0021445
Porosity region source38:
    selecting model: DarcyForchheimer
    creating porous zone: cz_solid_38
Selecting finite volume options model type explicitPorositySource
    Source: source39
    - selecting cells using cellZone cz_solid_39
    - selected 1814 cell(s) with volume 0.00213939
Porosity region source39:
    selecting model: DarcyForchheimer
    creating porous zone: cz_solid_39
Selecting finite volume options model type explicitPorositySource
    Source: source40
    - selecting cells using cellZone cz_solid_40
    - selected 2388 cell(s) with volume 0.00214548
Porosity region source40:
    selecting model: DarcyForchheimer
    creating porous zone: cz_solid_40
Selecting finite volume options model type explicitPorositySource
    Source: source41
    - selecting cells using cellZone cz_solid_41
    - selected 2508 cell(s) with volume 0.00214179
Porosity region source41:
    selecting model: DarcyForchheimer
    creating porous zone: cz_solid_41
Selecting finite volume options model type explicitPorositySource
    Source: source42
    - selecting cells using cellZone cz_solid_42
    - selected 2409 cell(s) with volume 0.00214568
Porosity region source42:
    selecting model: DarcyForchheimer
    creating porous zone: cz_solid_42
Selecting finite volume options model type explicitPorositySource
    Source: source43
    - selecting cells using cellZone cz_solid_43
    - selected 2159 cell(s) with volume 0.00214076
Porosity region source43:
    selecting model: DarcyForchheimer
    creating porous zone: cz_solid_43
Selecting finite volume options model type explicitPorositySource
    Source: source44
    - selecting cells using cellZone cz_solid_44
    - selected 2396 cell(s) with volume 0.00214504
Porosity region source44:
    selecting model: DarcyForchheimer
    creating porous zone: cz_solid_44
Selecting finite volume options model type explicitPorositySource
    Source: source45
    - selecting cells using cellZone cz_solid_45
    - selected 1964 cell(s) with volume 0.00214178
Porosity region source45:
    selecting model: DarcyForchheimer
    creating porous zone: cz_solid_45
Selecting finite volume options model type explicitPorositySource
    Source: source46
    - selecting cells using cellZone cz_solid_46
    - selected 2244 cell(s) with volume 0.0021446
Porosity region source46:
    selecting model: DarcyForchheimer
    creating porous zone: cz_solid_46
Selecting finite volume options model type explicitPorositySource
    Source: source47
    - selecting cells using cellZone cz_solid_47
    - selected 2171 cell(s) with volume 0.00214457
Porosity region source47:
    selecting model: DarcyForchheimer
    creating porous zone: cz_solid_47
Selecting finite volume options model type explicitPorositySource
    Source: source48
    - selecting cells using cellZone cz_solid_48
    - selected 1810 cell(s) with volume 0.00214308
Porosity region source48:
    selecting model: DarcyForchheimer
    creating porous zone: cz_solid_48
Selecting finite volume options model type explicitPorositySource
    Source: source49
    - selecting cells using cellZone cz_solid_49
    - selected 2139 cell(s) with volume 0.00214293
Porosity region source49:
    selecting model: DarcyForchheimer
    creating porous zone: cz_solid_49
Selecting finite volume options model type explicitPorositySource
    Source: source50
    - selecting cells using cellZone cz_solid_50
    - selected 2365 cell(s) with volume 0.002145
Porosity region source50:
    selecting model: DarcyForchheimer
    creating porous zone: cz_solid_50
Selecting finite volume options model type explicitPorositySource
    Source: source51
    - selecting cells using cellZone cz_solid_51
    - selected 2433 cell(s) with volume 0.00214352
Porosity region source51:
    selecting model: DarcyForchheimer
    creating porous zone: cz_solid_51
Selecting finite volume options model type explicitPorositySource
    Source: source52
    - selecting cells using cellZone cz_solid_52
    - selected 2414 cell(s) with volume 0.00214447
Porosity region source52:
    selecting model: DarcyForchheimer
    creating porous zone: cz_solid_52
Selecting finite volume options model type explicitPorositySource
    Source: source53
    - selecting cells using cellZone cz_solid_53
    - selected 2060 cell(s) with volume 0.00214295
Porosity region source53:
    selecting model: DarcyForchheimer
    creating porous zone: cz_solid_53
Selecting finite volume options model type explicitPorositySource
    Source: source54
    - selecting cells using cellZone cz_solid_54
    - selected 1964 cell(s) with volume 0.00214435
Porosity region source54:
    selecting model: DarcyForchheimer
    creating porous zone: cz_solid_54
Selecting finite volume options model type explicitPorositySource
    Source: source55
    - selecting cells using cellZone cz_solid_55
    - selected 2177 cell(s) with volume 0.00214205
Porosity region source55:
    selecting model: DarcyForchheimer
    creating porous zone: cz_solid_55
Selecting finite volume options model type explicitPorositySource
    Source: source56
    - selecting cells using cellZone cz_solid_56
    - selected 2321 cell(s) with volume 0.00214185
Porosity region source56:
    selecting model: DarcyForchheimer
    creating porous zone: cz_solid_56
Selecting finite volume options model type explicitPorositySource
    Source: source57
    - selecting cells using cellZone cz_solid_57
    - selected 2389 cell(s) with volume 0.00214564
Porosity region source57:
    selecting model: DarcyForchheimer
    creating porous zone: cz_solid_57
Selecting finite volume options model type explicitPorositySource
    Source: source58
    - selecting cells using cellZone cz_solid_58
    - selected 2417 cell(s) with volume 0.00214506
Porosity region source58:
    selecting model: DarcyForchheimer
    creating porous zone: cz_solid_58
Selecting finite volume options model type explicitPorositySource
    Source: source59
    - selecting cells using cellZone cz_solid_59
    - selected 1885 cell(s) with volume 0.00213934
Porosity region source59:
    selecting model: DarcyForchheimer
    creating porous zone: cz_solid_59
Selecting finite volume options model type explicitPorositySource
    Source: source60
    - selecting cells using cellZone cz_solid_60
    - selected 2374 cell(s) with volume 0.00214532
Porosity region source60:
    selecting model: DarcyForchheimer
    creating porous zone: cz_solid_60
Selecting finite volume options model type explicitPorositySource
    Source: source61
    - selecting cells using cellZone cz_solid_61
    - selected 2473 cell(s) with volume 0.00214207
Porosity region source61:
    selecting model: DarcyForchheimer
    creating porous zone: cz_solid_61
Selecting finite volume options model type explicitPorositySource
    Source: source62
    - selecting cells using cellZone cz_solid_62
    - selected 2346 cell(s) with volume 0.00214575
Porosity region source62:
    selecting model: DarcyForchheimer
    creating porous zone: cz_solid_62
Selecting finite volume options model type explicitPorositySource
    Source: source63
    - selecting cells using cellZone cz_solid_63
    - selected 2096 cell(s) with volume 0.00214078
Porosity region source63:
    selecting model: DarcyForchheimer
    creating porous zone: cz_solid_63
Selecting finite volume options model type explicitPorositySource
    Source: source64
    - selecting cells using cellZone cz_solid_64
    - selected 2326 cell(s) with volume 0.00214516
Porosity region source64:
    selecting model: DarcyForchheimer
    creating porous zone: cz_solid_64
Selecting finite volume options model type explicitPorositySource
    Source: source65
    - selecting cells using cellZone cz_solid_65
    - selected 1883 cell(s) with volume 0.00214171
Porosity region source65:
    selecting model: DarcyForchheimer
    creating porous zone: cz_solid_65
Selecting finite volume options model type explicitPorositySource
    Source: source66
    - selecting cells using cellZone cz_solid_66
    - selected 2198 cell(s) with volume 0.00214429
Porosity region source66:
    selecting model: DarcyForchheimer
    creating porous zone: cz_solid_66
Selecting finite volume options model type explicitPorositySource
    Source: source67
    - selecting cells using cellZone cz_solid_67
    - selected 2118 cell(s) with volume 0.0021449
Porosity region source67:
    selecting model: DarcyForchheimer
    creating porous zone: cz_solid_67
Selecting finite volume options model type explicitPorositySource
    Source: source68
    - selecting cells using cellZone cz_solid_68
    - selected 1727 cell(s) with volume 0.00214313
Porosity region source68:
    selecting model: DarcyForchheimer
    creating porous zone: cz_solid_68
Selecting finite volume options model type explicitPorositySource
    Source: source69
    - selecting cells using cellZone cz_solid_69
    - selected 2097 cell(s) with volume 0.00214274
Porosity region source69:
    selecting model: DarcyForchheimer
    creating porous zone: cz_solid_69
Selecting finite volume options model type explicitPorositySource
    Source: source70
    - selecting cells using cellZone cz_solid_70
    - selected 2309 cell(s) with volume 0.00214524
Porosity region source70:
    selecting model: DarcyForchheimer
    creating porous zone: cz_solid_70
Selecting finite volume options model type explicitPorositySource
    Source: source71
    - selecting cells using cellZone cz_solid_71
    - selected 2377 cell(s) with volume 0.0021437
Porosity region source71:
    selecting model: DarcyForchheimer
    creating porous zone: cz_solid_71
Selecting finite volume options model type explicitPorositySource
    Source: source72
    - selecting cells using cellZone cz_solid_72
    - selected 2393 cell(s) with volume 0.00214451
Porosity region source72:
    selecting model: DarcyForchheimer
    creating porous zone: cz_solid_72
Selecting finite volume options model type explicitPorositySource
    Source: source73
    - selecting cells using cellZone cz_solid_73
    - selected 1997 cell(s) with volume 0.00214273
Porosity region source73:
    selecting model: DarcyForchheimer
    creating porous zone: cz_solid_73
Selecting finite volume options model type explicitPorositySource
    Source: source74
    - selecting cells using cellZone cz_solid_74
    - selected 1891 cell(s) with volume 0.00214432
Porosity region source74:
    selecting model: DarcyForchheimer
    creating porous zone: cz_solid_74
Selecting finite volume options model type explicitPorositySource
    Source: source75
    - selecting cells using cellZone cz_solid_75
    - selected 2119 cell(s) with volume 0.00214208
Porosity region source75:
    selecting model: DarcyForchheimer
    creating porous zone: cz_solid_75
Selecting finite volume options model type explicitPorositySource
    Source: source76
    - selecting cells using cellZone cz_solid_76
    - selected 2244 cell(s) with volume 0.00214197
Porosity region source76:
    selecting model: DarcyForchheimer
    creating porous zone: cz_solid_76
Selecting finite volume options model type explicitPorositySource
    Source: source77
    - selecting cells using cellZone cz_solid_77
    - selected 2361 cell(s) with volume 0.00214526
Porosity region source77:
    selecting model: DarcyForchheimer
    creating porous zone: cz_solid_77
Selecting finite volume options model type explicitPorositySource
    Source: source78
    - selecting cells using cellZone cz_solid_78
    - selected 2382 cell(s) with volume 0.00214521
Porosity region source78:
    selecting model: DarcyForchheimer
    creating porous zone: cz_solid_78
Selecting finite volume options model type explicitPorositySource
    Source: source79
    - selecting cells using cellZone cz_solid_79
    - selected 1803 cell(s) with volume 0.00213922
Porosity region source79:
    selecting model: DarcyForchheimer
    creating porous zone: cz_solid_79
Selecting finite volume options model type explicitPorositySource
    Source: source80
    - selecting cells using cellZone cz_solid_80
    - selected 2374 cell(s) with volume 0.00214583
Porosity region source80:
    selecting model: DarcyForchheimer
    creating porous zone: cz_solid_80
Selecting finite volume options model type explicitPorositySource
    Source: source81
    - selecting cells using cellZone cz_solid_81
    - selected 2467 cell(s) with volume 0.00214318
Porosity region source81:
    selecting model: DarcyForchheimer
    creating porous zone: cz_solid_81
Selecting finite volume options model type explicitPorositySource
    Source: source82
    - selecting cells using cellZone cz_solid_82
    - selected 2343 cell(s) with volume 0.00214637
Porosity region source82:
    selecting model: DarcyForchheimer
    creating porous zone: cz_solid_82
Selecting finite volume options model type explicitPorositySource
    Source: source83
    - selecting cells using cellZone cz_solid_83
    - selected 2093 cell(s) with volume 0.00214155
Porosity region source83:
    selecting model: DarcyForchheimer
    creating porous zone: cz_solid_83
Selecting finite volume options model type explicitPorositySource
    Source: source84
    - selecting cells using cellZone cz_solid_84
    - selected 2326 cell(s) with volume 0.00214539
Porosity region source84:
    selecting model: DarcyForchheimer
    creating porous zone: cz_solid_84
Selecting finite volume options model type explicitPorositySource
    Source: source85
    - selecting cells using cellZone cz_solid_85
    - selected 1877 cell(s) with volume 0.00214223
Porosity region source85:
    selecting model: DarcyForchheimer
    creating porous zone: cz_solid_85
Selecting finite volume options model type explicitPorositySource
    Source: source86
    - selecting cells using cellZone cz_solid_86
    - selected 2189 cell(s) with volume 0.00214575
Porosity region source86:
    selecting model: DarcyForchheimer
    creating porous zone: cz_solid_86
Selecting finite volume options model type explicitPorositySource
    Source: source87
    - selecting cells using cellZone cz_solid_87
    - selected 2109 cell(s) with volume 0.00214621
Porosity region source87:
    selecting model: DarcyForchheimer
    creating porous zone: cz_solid_87
Selecting finite volume options model type explicitPorositySource
    Source: source88
    - selecting cells using cellZone cz_solid_88
    - selected 1718 cell(s) with volume 0.00214449
Porosity region source88:
    selecting model: DarcyForchheimer
    creating porous zone: cz_solid_88
Selecting finite volume options model type explicitPorositySource
    Source: source89
    - selecting cells using cellZone cz_solid_89
    - selected 2091 cell(s) with volume 0.00214382
Porosity region source89:
    selecting model: DarcyForchheimer
    creating porous zone: cz_solid_89
Selecting finite volume options model type explicitPorositySource
    Source: source90
    - selecting cells using cellZone cz_solid_90
    - selected 2303 cell(s) with volume 0.00214608
Porosity region source90:
    selecting model: DarcyForchheimer
    creating porous zone: cz_solid_90
Selecting finite volume options model type explicitPorositySource
    Source: source91
    - selecting cells using cellZone cz_solid_91
    - selected 2374 cell(s) with volume 0.00214437
Porosity region source91:
    selecting model: DarcyForchheimer
    creating porous zone: cz_solid_91
Selecting finite volume options model type explicitPorositySource
    Source: source92
    - selecting cells using cellZone cz_solid_92
    - selected 2393 cell(s) with volume 0.00214482
Porosity region source92:
    selecting model: DarcyForchheimer
    creating porous zone: cz_solid_92
Selecting finite volume options model type explicitPorositySource
    Source: source93
    - selecting cells using cellZone cz_solid_93
    - selected 1991 cell(s) with volume 0.0021437
Porosity region source93:
    selecting model: DarcyForchheimer
    creating porous zone: cz_solid_93
Selecting finite volume options model type explicitPorositySource
    Source: source94
    - selecting cells using cellZone cz_solid_94
    - selected 1882 cell(s) with volume 0.00214588
Porosity region source94:
    selecting model: DarcyForchheimer
    creating porous zone: cz_solid_94
Selecting finite volume options model type explicitPorositySource
    Source: source95
    - selecting cells using cellZone cz_solid_95
    - selected 2119 cell(s) with volume 0.00214266
Porosity region source95:
    selecting model: DarcyForchheimer
    creating porous zone: cz_solid_95
Selecting finite volume options model type explicitPorositySource
    Source: source96
    - selecting cells using cellZone cz_solid_96
    - selected 2241 cell(s) with volume 0.00214278
Porosity region source96:
    selecting model: DarcyForchheimer
    creating porous zone: cz_solid_96
Selecting finite volume options model type explicitPorositySource
    Source: source97
    - selecting cells using cellZone cz_solid_97
    - selected 2361 cell(s) with volume 0.00214553
Porosity region source97:
    selecting model: DarcyForchheimer
    creating porous zone: cz_solid_97
Selecting finite volume options model type explicitPorositySource
    Source: source98
    - selecting cells using cellZone cz_solid_98
    - selected 2376 cell(s) with volume 0.00214588
Porosity region source98:
    selecting model: DarcyForchheimer
    creating porous zone: cz_solid_98
Selecting finite volume options model type explicitPorositySource
    Source: source99
    - selecting cells using cellZone cz_solid_99
    - selected 1797 cell(s) with volume 0.00214042
Porosity region source99:
    selecting model: DarcyForchheimer
    creating porous zone: cz_solid_99

Starting time loop

forces porousforces:
--> FOAM Warning : 
    From function Foam::labelHashSet Foam::polyBoundaryMesh::patchSet(const Foam::UList<Foam::wordRe>&, bool, bool) const
    in file meshes/polyMesh/polyBoundaryMesh/polyBoundaryMesh.C at line 798
    Cannot find any patch or group names matching solid_to_fluid
    Including porosity effects


surfaceFieldValue massFlowAtFilter_0:
    total faces  = 1950
    total area   = 0.101737




surfaceFieldValue massFlowAtFilter_1:
    total faces  = 1802
    total area   = 0.101671




surfaceFieldValue massFlowAtFilter_2:
    total faces  = 1953
    total area   = 0.101719




surfaceFieldValue massFlowAtFilter_3:
    total faces  = 1690
    total area   = 0.101676




surfaceFieldValue massFlowAtFilter_4:
    total faces  = 1822
    total area   = 0.101826




surfaceFieldValue massFlowAtFilter_5:
    total faces  = 1697
    total area   = 0.101757




surfaceFieldValue massFlowAtFilter_6:
    total faces  = 1814
    total area   = 0.10192




surfaceFieldValue massFlowAtFilter_7:
    total faces  = 1867
    total area   = 0.101728




surfaceFieldValue massFlowAtFilter_8:
    total faces  = 1711
    total area   = 0.101704




surfaceFieldValue massFlowAtFilter_9:
    total faces  = 1672
    total area   = 0.101728




surfaceFieldValue massFlowAtFilter_10:
    total faces  = 1868
    total area   = 0.10175




surfaceFieldValue massFlowAtFilter_11:
    total faces  = 1795
    total area   = 0.10172




surfaceFieldValue massFlowAtFilter_12:
    total faces  = 1844
    total area   = 0.101731




surfaceFieldValue massFlowAtFilter_13:
    total faces  = 1658
    total area   = 0.101729




surfaceFieldValue massFlowAtFilter_14:
    total faces  = 1794
    total area   = 0.101731




surfaceFieldValue massFlowAtFilter_15:
    total faces  = 1777
    total area   = 0.10176




surfaceFieldValue massFlowAtFilter_16:
    total faces  = 1747
    total area   = 0.101685




surfaceFieldValue massFlowAtFilter_17:
    total faces  = 1833
    total area   = 0.101824




surfaceFieldValue massFlowAtFilter_18:
    total faces  = 1834
    total area   = 0.101814




surfaceFieldValue massFlowAtFilter_19:
    total faces  = 1612
    total area   = 0.101649




surfaceFieldValue massFlowAtFilter_20:
    total faces  = 1932
    total area   = 0.101592




surfaceFieldValue massFlowAtFilter_21:
    total faces  = 1782
    total area   = 0.10163




surfaceFieldValue massFlowAtFilter_22:
    total faces  = 1932
    total area   = 0.10163




surfaceFieldValue massFlowAtFilter_23:
    total faces  = 1676
    total area   = 0.101632




surfaceFieldValue massFlowAtFilter_24:
    total faces  = 1806
    total area   = 0.101667




surfaceFieldValue massFlowAtFilter_25:
    total faces  = 1686
    total area   = 0.101586




surfaceFieldValue massFlowAtFilter_26:
    total faces  = 1798
    total area   = 0.101828




surfaceFieldValue massFlowAtFilter_27:
    total faces  = 1852
    total area   = 0.101637




surfaceFieldValue massFlowAtFilter_28:
    total faces  = 1698
    total area   = 0.101664




surfaceFieldValue massFlowAtFilter_29:
    total faces  = 1652
    total area   = 0.101687




surfaceFieldValue massFlowAtFilter_30:
    total faces  = 1858
    total area   = 0.10173




surfaceFieldValue massFlowAtFilter_31:
    total faces  = 1784
    total area   = 0.101692




surfaceFieldValue massFlowAtFilter_32:
    total faces  = 1822
    total area   = 0.101711




surfaceFieldValue massFlowAtFilter_33:
    total faces  = 1638
    total area   = 0.101703




surfaceFieldValue massFlowAtFilter_34:
    total faces  = 1784
    total area   = 0.1017




surfaceFieldValue massFlowAtFilter_35:
    total faces  = 1758
    total area   = 0.101626




surfaceFieldValue massFlowAtFilter_36:
    total faces  = 1736
    total area   = 0.101639




surfaceFieldValue massFlowAtFilter_37:
    total faces  = 1818
    total area   = 0.101632




surfaceFieldValue massFlowAtFilter_38:
    total faces  = 1812
    total area   = 0.101668




surfaceFieldValue massFlowAtFilter_39:
    total faces  = 1598
    total area   = 0.101592




surfaceFieldValue massFlowAtFilter_40:
    total faces  = 1980
    total area   = 0.101738




surfaceFieldValue massFlowAtFilter_41:
    total faces  = 1826
    total area   = 0.101674




surfaceFieldValue massFlowAtFilter_42:
    total faces  = 1980
    total area   = 0.101711




surfaceFieldValue massFlowAtFilter_43:
    total faces  = 1720
    total area   = 0.101669




surfaceFieldValue massFlowAtFilter_44:
    total faces  = 1852
    total area   = 0.101822




surfaceFieldValue massFlowAtFilter_45:
    total faces  = 1733
    total area   = 0.101797




surfaceFieldValue massFlowAtFilter_46:
    total faces  = 1844
    total area   = 0.101915




surfaceFieldValue massFlowAtFilter_47:
    total faces  = 1900
    total area   = 0.101726




surfaceFieldValue massFlowAtFilter_48:
    total faces  = 1744
    total area   = 0.101693




surfaceFieldValue massFlowAtFilter_49:
    total faces  = 1696
    total area   = 0.101733




surfaceFieldValue massFlowAtFilter_50:
    total faces  = 1904
    total area   = 0.101747




surfaceFieldValue massFlowAtFilter_51:
    total faces  = 1828
    total area   = 0.101713




surfaceFieldValue massFlowAtFilter_52:
    total faces  = 1868
    total area   = 0.101735




surfaceFieldValue massFlowAtFilter_53:
    total faces  = 1682
    total area   = 0.101731




surfaceFieldValue massFlowAtFilter_54:
    total faces  = 1830
    total area   = 0.101721




surfaceFieldValue massFlowAtFilter_55:
    total faces  = 1804
    total area   = 0.101746




surfaceFieldValue massFlowAtFilter_56:
    total faces  = 1780
    total area   = 0.101679




surfaceFieldValue massFlowAtFilter_57:
    total faces  = 1863
    total area   = 0.10184




surfaceFieldValue massFlowAtFilter_58:
    total faces  = 1858
    total area   = 0.101815




surfaceFieldValue massFlowAtFilter_59:
    total faces  = 1642
    total area   = 0.101649




surfaceFieldValue massFlowAtFilter_60:
    total faces  = 1980
    total area   = 0.101738




surfaceFieldValue massFlowAtFilter_61:
    total faces  = 1826
    total area   = 0.101668




surfaceFieldValue massFlowAtFilter_62:
    total faces  = 1980
    total area   = 0.101684




surfaceFieldValue massFlowAtFilter_63:
    total faces  = 1714
    total area   = 0.101662




surfaceFieldValue massFlowAtFilter_64:
    total faces  = 1849
    total area   = 0.101796




surfaceFieldValue massFlowAtFilter_65:
    total faces  = 1718
    total area   = 0.101779




surfaceFieldValue massFlowAtFilter_66:
    total faces  = 1849
    total area   = 0.101823




surfaceFieldValue massFlowAtFilter_67:
    total faces  = 1910
    total area   = 0.101728




surfaceFieldValue massFlowAtFilter_68:
    total faces  = 1736
    total area   = 0.101705




surfaceFieldValue massFlowAtFilter_69:
    total faces  = 1693
    total area   = 0.101725




surfaceFieldValue massFlowAtFilter_70:
    total faces  = 1904
    total area   = 0.101735




surfaceFieldValue massFlowAtFilter_71:
    total faces  = 1828
    total area   = 0.101715




surfaceFieldValue massFlowAtFilter_72:
    total faces  = 1865
    total area   = 0.101723




surfaceFieldValue massFlowAtFilter_73:
    total faces  = 1673
    total area   = 0.101728




surfaceFieldValue massFlowAtFilter_74:
    total faces  = 1828
    total area   = 0.101716




surfaceFieldValue massFlowAtFilter_75:
    total faces  = 1805
    total area   = 0.10175




surfaceFieldValue massFlowAtFilter_76:
    total faces  = 1771
    total area   = 0.101676




surfaceFieldValue massFlowAtFilter_77:
    total faces  = 1863
    total area   = 0.101839




surfaceFieldValue massFlowAtFilter_78:
    total faces  = 1861
    total area   = 0.101805




surfaceFieldValue massFlowAtFilter_79:
    total faces  = 1630
    total area   = 0.10164




surfaceFieldValue massFlowAtFilter_80:
    total faces  = 1980
    total area   = 0.101655




surfaceFieldValue massFlowAtFilter_81:
    total faces  = 1832
    total area   = 0.101554




surfaceFieldValue massFlowAtFilter_82:
    total faces  = 1985
    total area   = 0.101593




surfaceFieldValue massFlowAtFilter_83:
    total faces  = 1719
    total area   = 0.101557




surfaceFieldValue massFlowAtFilter_84:
    total faces  = 1849
    total area   = 0.101648




surfaceFieldValue massFlowAtFilter_85:
    total faces  = 1724
    total area   = 0.101629




surfaceFieldValue massFlowAtFilter_86:
    total faces  = 1856
    total area   = 0.101709




surfaceFieldValue massFlowAtFilter_87:
    total faces  = 1917
    total area   = 0.101618




surfaceFieldValue massFlowAtFilter_88:
    total faces  = 1743
    total area   = 0.101588




surfaceFieldValue massFlowAtFilter_89:
    total faces  = 1699
    total area   = 0.101634




surfaceFieldValue massFlowAtFilter_90:
    total faces  = 1910
    total area   = 0.10164




surfaceFieldValue massFlowAtFilter_91:
    total faces  = 1833
    total area   = 0.101604




surfaceFieldValue massFlowAtFilter_92:
    total faces  = 1865
    total area   = 0.101649




surfaceFieldValue massFlowAtFilter_93:
    total faces  = 1679
    total area   = 0.101623




surfaceFieldValue massFlowAtFilter_94:
    total faces  = 1835
    total area   = 0.101576




surfaceFieldValue massFlowAtFilter_95:
    total faces  = 1805
    total area   = 0.101634




surfaceFieldValue massFlowAtFilter_96:
    total faces  = 1776
    total area   = 0.101578




surfaceFieldValue massFlowAtFilter_97:
    total faces  = 1863
    total area   = 0.101661




surfaceFieldValue massFlowAtFilter_98:
    total faces  = 1867
    total area   = 0.101635




surfaceFieldValue massFlowAtFilter_99:
    total faces  = 1636
    total area   = 0.101546


Time = 1

DILUPBiCG:  Solving for Ux, Initial residual = 1, Final residual = 3.39105e-06, No Iterations 6
DILUPBiCG:  Solving for Uy, Initial residual = 1, Final residual = 2.34568e-06, No Iterations 7
DILUPBiCG:  Solving for Uz, Initial residual = 1, Final residual = 6.74055e-06, No Iterations 6
DICPCG:  Solving for p, Initial residual = 1, Final residual = 0.0944453, No Iterations 326
DICPCG:  Solving for p, Initial residual = 0.0034109, Final residual = 0.000236718, No Iterations 4
DICPCG:  Solving for p, Initial residual = 0.000479645, Final residual = 4.74233e-05, No Iterations 28
time step continuity errors : sum local = 0.0571772, global = -0.000683298, cumulative = -0.000683298
DILUPBiCG:  Solving for epsilon, Initial residual = 0.0523077, Final residual = 9.87396e-06, No Iterations 3
DILUPBiCG:  Solving for k, Initial residual = 1, Final residual = 5.84575e-07, No Iterations 6
ExecutionTime = 6.65 s  ClockTime = 7 s

Time = 2

DILUPBiCG:  Solving for Ux, Initial residual = 0.000152476, Final residual = 3.91394e-06, No Iterations 2
DILUPBiCG:  Solving for Uy, Initial residual = 6.44971e-05, Final residual = 3.2518e-07, No Iterations 3
DILUPBiCG:  Solving for Uz, Initial residual = 0.000138288, Final residual = 2.70838e-06, No Iterations 2
DICPCG:  Solving for p, Initial residual = 0.010169, Final residual = 0.0010166, No Iterations 128
DICPCG:  Solving for p, Initial residual = 0.00559452, Final residual = 0.00054529, No Iterations 10
DICPCG:  Solving for p, Initial residual = 0.000921393, Final residual = 8.87952e-05, No Iterations 288
time step continuity errors : sum local = 0.0273117, global = 0.000222057, cumulative = -0.000461241
DILUPBiCG:  Solving for epsilon, Initial residual = 0.0133967, Final residual = 9.14016e-06, No Iterations 3
DILUPBiCG:  Solving for k, Initial residual = 0.520744, Final residual = 4.47721e-07, No Iterations 6
ExecutionTime = 11.55 s  ClockTime = 12 s

Time = 3

DILUPBiCG:  Solving for Ux, Initial residual = 2.23551e-05, Final residual = 3.79139e-06, No Iterations 1
DILUPBiCG:  Solving for Uy, Initial residual = 1.32054e-05, Final residual = 2.47948e-06, No Iterations 1
DILUPBiCG:  Solving for Uz, Initial residual = 3.33745e-05, Final residual = 9.93389e-06, No Iterations 1
DICPCG:  Solving for p, Initial residual = 0.0200735, Final residual = 0.00197419, No Iterations 299
DICPCG:  Solving for p, Initial residual = 0.00742487, Final residual = 0.000602782, No Iterations 4
DICPCG:  Solving for p, Initial residual = 0.00104856, Final residual = 0.000102657, No Iterations 47
time step continuity errors : sum local = 0.0632051, global = 9.15525e-05, cumulative = -0.000369689
DILUPBiCG:  Solving for epsilon, Initial residual = 0.0178184, Final residual = 1.11052e-06, No Iterations 4
DILUPBiCG:  Solving for k, Initial residual = 0.260674, Final residual = 9.4313e-08, No Iterations 6
ExecutionTime = 15.78 s  ClockTime = 16 s

Time = 4

DILUPBiCG:  Solving for Ux, Initial residual = 6.20545e-06, Final residual = 6.20545e-06, No Iterations 0
DILUPBiCG:  Solving for Uy, Initial residual = 2.26317e-06, Final residual = 2.26317e-06, No Iterations 0
DILUPBiCG:  Solving for Uz, Initial residual = 7.8046e-06, Final residual = 7.8046e-06, No Iterations 0
DICPCG:  Solving for p, Initial residual = 0.0772577, Final residual = 0.00747464, No Iterations 308
DICPCG:  Solving for p, Initial residual = 0.00533512, Final residual = 0.000397301, No Iterations 4
DICPCG:  Solving for p, Initial residual = 0.000728528, Final residual = 7.13329e-05, No Iterations 42
time step continuity errors : sum local = 0.0407403, global = -0.000124628, cumulative = -0.000494316
DILUPBiCG:  Solving for epsilon, Initial residual = 0.0169089, Final residual = 6.28038e-06, No Iterations 3
DILUPBiCG:  Solving for k, Initial residual = 0.152089, Final residual = 4.39574e-07, No Iterations 5
ExecutionTime = 19.89 s  ClockTime = 20 s

Time = 5

DILUPBiCG:  Solving for Ux, Initial residual = 1.82785e-05, Final residual = 3.6385e-06, No Iterations 1
DILUPBiCG:  Solving for Uy, Initial residual = 9.88684e-06, Final residual = 9.88684e-06, No Iterations 0
DILUPBiCG:  Solving for Uz, Initial residual = 1.69971e-05, Final residual = 4.0854e-06, No Iterations 1
DICPCG:  Solving for p, Initial residual = 0.0209335, Final residual = 0.00195711, No Iterations 48
DICPCG:  Solving for p, Initial residual = 0.00639825, Final residual = 0.000638534, No Iterations 268
DICPCG:  Solving for p, Initial residual = 0.00212054, Final residual = 0.000201238, No Iterations 5
time step continuity errors : sum local = 0.0722065, global = 0.000584329, cumulative = 9.00133e-05
DILUPBiCG:  Solving for epsilon, Initial residual = 0.0142877, Final residual = 4.31985e-06, No Iterations 3
DILUPBiCG:  Solving for k, Initial residual = 0.108483, Final residual = 4.29245e-07, No Iterations 5
ExecutionTime = 23.77 s  ClockTime = 24 s

Time = 6

DILUPBiCG:  Solving for Ux, Initial residual = 2.32461e-05, Final residual = 5.19969e-06, No Iterations 1
DILUPBiCG:  Solving for Uy, Initial residual = 1.44447e-05, Final residual = 2.86182e-06, No Iterations 1
DILUPBiCG:  Solving for Uz, Initial residual = 1.91759e-05, Final residual = 5.73748e-06, No Iterations 1
DICPCG:  Solving for p, Initial residual = 0.0243728, Final residual = 0.00238659, No Iterations 295
DICPCG:  Solving for p, Initial residual = 0.00810423, Final residual = 0.00076533, No Iterations 5
DICPCG:  Solving for p, Initial residual = 0.00118269, Final residual = 0.000115003, No Iterations 57
time step continuity errors : sum local = 0.0524918, global = -0.000644479, cumulative = -0.000554466
DILUPBiCG:  Solving for epsilon, Initial residual = 0.0134427, Final residual = 4.58241e-06, No Iterations 3
DILUPBiCG:  Solving for k, Initial residual = 0.092054, Final residual = 5.04434e-07, No Iterations 5
ExecutionTime = 27.96 s  ClockTime = 28 s

Time = 7

DILUPBiCG:  Solving for Ux, Initial residual = 1.50446e-05, Final residual = 5.01662e-07, No Iterations 2
DILUPBiCG:  Solving for Uy, Initial residual = 4.6711e-06, Final residual = 4.6711e-06, No Iterations 0
DILUPBiCG:  Solving for Uz, Initial residual = 9.36231e-06, Final residual = 9.36231e-06, No Iterations 0
DICPCG:  Solving for p, Initial residual = 0.0849824, Final residual = 0.00844555, No Iterations 297
DICPCG:  Solving for p, Initial residual = 0.00480716, Final residual = 0.000479698, No Iterations 4
DICPCG:  Solving for p, Initial residual = 0.00071708, Final residual = 7.1503e-05, No Iterations 51
time step continuity errors : sum local = 0.035851, global = -0.000120644, cumulative = -0.00067511
DILUPBiCG:  Solving for epsilon, Initial residual = 0.0122112, Final residual = 3.8757e-06, No Iterations 3
DILUPBiCG:  Solving for k, Initial residual = 0.0755808, Final residual = 4.47603e-08, No Iterations 6
ExecutionTime = 32.11 s  ClockTime = 33 s

Time = 8

DILUPBiCG:  Solving for Ux, Initial residual = 2.02413e-05, Final residual = 3.97688e-06, No Iterations 1
DILUPBiCG:  Solving for Uy, Initial residual = 1.22528e-05, Final residual = 2.42466e-06, No Iterations 1
DILUPBiCG:  Solving for Uz, Initial residual = 1.94177e-05, Final residual = 4.5009e-06, No Iterations 1
DICPCG:  Solving for p, Initial residual = 0.0274204, Final residual = 0.00268129, No Iterations 67
DICPCG:  Solving for p, Initial residual = 0.00780061, Final residual = 0.000777688, No Iterations 82
DICPCG:  Solving for p, Initial residual = 0.00199614, Final residual = 0.000196474, No Iterations 252
time step continuity errors : sum local = 0.0252061, global = -0.00062682, cumulative = -0.00130193
DILUPBiCG:  Solving for epsilon, Initial residual = 0.0121509, Final residual = 6.31713e-07, No Iterations 4
DILUPBiCG:  Solving for k, Initial residual = 0.0631715, Final residual = 3.89701e-08, No Iterations 6
ExecutionTime = 36.72 s  ClockTime = 37 s

Time = 9

DILUPBiCG:  Solving for Ux, Initial residual = 7.09663e-06, Final residual = 7.09663e-06, No Iterations 0
DILUPBiCG:  Solving for Uy, Initial residual = 7.04723e-06, Final residual = 7.04723e-06, No Iterations 0
DILUPBiCG:  Solving for Uz, Initial residual = 9.19859e-06, Final residual = 9.19859e-06, No Iterations 0
DICPCG:  Solving for p, Initial residual = 0.0215608, Final residual = 0.00214507, No Iterations 102
DICPCG:  Solving for p, Initial residual = 0.00812932, Final residual = 0.000789258, No Iterations 224
DICPCG:  Solving for p, Initial residual = 0.0190486, Final residual = 0.00185852, No Iterations 6
time step continuity errors : sum local = 0.050248, global = 0.00231724, cumulative = 0.00101531
DILUPBiCG:  Solving for epsilon, Initial residual = 0.011403, Final residual = 3.86805e-06, No Iterations 3
DILUPBiCG:  Solving for k, Initial residual = 0.0560924, Final residual = 4.28999e-08, No Iterations 6
ExecutionTime = 40.64 s  ClockTime = 41 s

Time = 10

DILUPBiCG:  Solving for Ux, Initial residual = 4.04104e-06, Final residual = 4.04104e-06, No Iterations 0
DILUPBiCG:  Solving for Uy, Initial residual = 4.24861e-06, Final residual = 4.24861e-06, No Iterations 0
DILUPBiCG:  Solving for Uz, Initial residual = 5.22595e-06, Final residual = 5.22595e-06, No Iterations 0
DICPCG:  Solving for p, Initial residual = 0.0196959, Final residual = 0.0019628, No Iterations 295
DICPCG:  Solving for p, Initial residual = 0.0093929, Final residual = 0.000924016, No Iterations 6
DICPCG:  Solving for p, Initial residual = 0.00143962, Final residual = 0.000136745, No Iterations 55
time step continuity errors : sum local = 0.0131893, global = 9.32624e-05, cumulative = 0.00110857
DILUPBiCG:  Solving for epsilon, Initial residual = 0.0107636, Final residual = 3.08594e-06, No Iterations 3
DILUPBiCG:  Solving for k, Initial residual = 0.0510064, Final residual = 4.65442e-08, No Iterations 6
ExecutionTime = 44.77 s  ClockTime = 45 s

Time = 11

DILUPBiCG:  Solving for Ux, Initial residual = 5.96915e-06, Final residual = 5.96915e-06, No Iterations 0
DILUPBiCG:  Solving for Uy, Initial residual = 1.53276e-06, Final residual = 1.53276e-06, No Iterations 0
DILUPBiCG:  Solving for Uz, Initial residual = 5.36526e-06, Final residual = 5.36526e-06, No Iterations 0
DICPCG:  Solving for p, Initial residual = 0.033217, Final residual = 0.00313156, No Iterations 299
DICPCG:  Solving for p, Initial residual = 0.00531336, Final residual = 0.000507709, No Iterations 4
DICPCG:  Solving for p, Initial residual = 0.000774597, Final residual = 7.41824e-05, No Iterations 56
time step continuity errors : sum local = 0.00864485, global = 9.95458e-05, cumulative = 0.00120812
DILUPBiCG:  Solving for epsilon, Initial residual = 0.0100964, Final residual = 2.83373e-06, No Iterations 3
DILUPBiCG:  Solving for k, Initial residual = 0.0470288, Final residual = 5.46425e-08, No Iterations 6
ExecutionTime = 48.91 s  ClockTime = 49 s

Time = 12

DILUPBiCG:  Solving for Ux, Initial residual = 7.50299e-06, Final residual = 7.50299e-06, No Iterations 0
DILUPBiCG:  Solving for Uy, Initial residual = 1.57841e-06, Final residual = 1.57841e-06, No Iterations 0
DILUPBiCG:  Solving for Uz, Initial residual = 6.35227e-06, Final residual = 6.35227e-06, No Iterations 0
DICPCG:  Solving for p, Initial residual = 0.0519676, Final residual = 0.00496156, No Iterations 295
DICPCG:  Solving for p, Initial residual = 0.00395694, Final residual = 0.000394091, No Iterations 12
DICPCG:  Solving for p, Initial residual = 0.000686373, Final residual = 6.65149e-05, No Iterations 42
time step continuity errors : sum local = 0.00635542, global = 2.60314e-05, cumulative = 0.00123415
DILUPBiCG:  Solving for epsilon, Initial residual = 0.00951496, Final residual = 2.83413e-06, No Iterations 3
DILUPBiCG:  Solving for k, Initial residual = 0.043877, Final residual = 7.10619e-07, No Iterations 5
ExecutionTime = 53 s  ClockTime = 53 s

Time = 13

DILUPBiCG:  Solving for Ux, Initial residual = 7.16985e-06, Final residual = 7.16985e-06, No Iterations 0
DILUPBiCG:  Solving for Uy, Initial residual = 2.60715e-06, Final residual = 2.60715e-06, No Iterations 0
DILUPBiCG:  Solving for Uz, Initial residual = 6.5429e-06, Final residual = 6.5429e-06, No Iterations 0
DICPCG:  Solving for p, Initial residual = 0.0261622, Final residual = 0.00261183, No Iterations 68
DICPCG:  Solving for p, Initial residual = 0.00778337, Final residual = 0.000756881, No Iterations 73
DICPCG:  Solving for p, Initial residual = 0.00214454, Final residual = 0.00020923, No Iterations 248
time step continuity errors : sum local = 0.00886641, global = 7.42558e-05, cumulative = 0.00130841
DILUPBiCG:  Solving for epsilon, Initial residual = 0.00914073, Final residual = 4.52729e-06, No Iterations 3
DILUPBiCG:  Solving for k, Initial residual = 0.0413002, Final residual = 5.17631e-07, No Iterations 5
ExecutionTime = 57.41 s  ClockTime = 58 s

Time = 14

DILUPBiCG:  Solving for Ux, Initial residual = 5.27811e-06, Final residual = 5.27811e-06, No Iterations 0
DILUPBiCG:  Solving for Uy, Initial residual = 2.84457e-06, Final residual = 2.84457e-06, No Iterations 0
DILUPBiCG:  Solving for Uz, Initial residual = 5.26906e-06, Final residual = 5.26906e-06, No Iterations 0
DICPCG:  Solving for p, Initial residual = 0.0217993, Final residual = 0.00215342, No Iterations 99
DICPCG:  Solving for p, Initial residual = 0.00784981, Final residual = 0.000780122, No Iterations 269
DICPCG:  Solving for p, Initial residual = 0.025272, Final residual = 0.00252278, No Iterations 8
time step continuity errors : sum local = 0.016733, global = 0.000255852, cumulative = 0.00156426
DILUPBiCG:  Solving for epsilon, Initial residual = 0.00891813, Final residual = 1.90011e-06, No Iterations 4
DILUPBiCG:  Solving for k, Initial residual = 0.039024, Final residual = 5.53849e-07, No Iterations 5
ExecutionTime = 61.69 s  ClockTime = 62 s

Time = 15

DILUPBiCG:  Solving for Ux, Initial residual = 3.31721e-06, Final residual = 3.31721e-06, No Iterations 0
DILUPBiCG:  Solving for Uy, Initial residual = 2.19723e-06, Final residual = 2.19723e-06, No Iterations 0
DILUPBiCG:  Solving for Uz, Initial residual = 3.58103e-06, Final residual = 3.58103e-06, No Iterations 0
DICPCG:  Solving for p, Initial residual = 0.0216925, Final residual = 0.00215053, No Iterations 292
DICPCG:  Solving for p, Initial residual = 0.0111361, Final residual = 0.00107243, No Iterations 27
DICPCG:  Solving for p, Initial residual = 0.00209718, Final residual = 0.000209022, No Iterations 48
time step continuity errors : sum local = 0.00696949, global = -6.85265e-05, cumulative = 0.00149573
DILUPBiCG:  Solving for epsilon, Initial residual = 0.00885894, Final residual = 3.36124e-06, No Iterations 3
DILUPBiCG:  Solving for k, Initial residual = 0.0369168, Final residual = 7.05026e-07, No Iterations 5
ExecutionTime = 65.88 s  ClockTime = 66 s

Time = 16

DILUPBiCG:  Solving for Ux, Initial residual = 2.90745e-06, Final residual = 2.90745e-06, No Iterations 0
DILUPBiCG:  Solving for Uy, Initial residual = 1.11547e-06, Final residual = 1.11547e-06, No Iterations 0
DILUPBiCG:  Solving for Uz, Initial residual = 3.00011e-06, Final residual = 3.00011e-06, No Iterations 0
DICPCG:  Solving for p, Initial residual = 0.0320765, Final residual = 0.00319885, No Iterations 298
DICPCG:  Solving for p, Initial residual = 0.00587452, Final residual = 0.000566524, No Iterations 6
DICPCG:  Solving for p, Initial residual = 0.000872942, Final residual = 8.14429e-05, No Iterations 59
time step continuity errors : sum local = 0.00400201, global = -7.9301e-05, cumulative = 0.00141643
DILUPBiCG:  Solving for epsilon, Initial residual = 0.00881482, Final residual = 5.54536e-06, No Iterations 3
DILUPBiCG:  Solving for k, Initial residual = 0.0349117, Final residual = 9.94331e-07, No Iterations 5
ExecutionTime = 70.04 s  ClockTime = 70 s

Time = 17

DILUPBiCG:  Solving for Ux, Initial residual = 3.23917e-06, Final residual = 3.23917e-06, No Iterations 0
DILUPBiCG:  Solving for Uy, Initial residual = 5.88681e-07, Final residual = 5.88681e-07, No Iterations 0
DILUPBiCG:  Solving for Uz, Initial residual = 3.23387e-06, Final residual = 3.23387e-06, No Iterations 0
DICPCG:  Solving for p, Initial residual = 0.0593161, Final residual = 0.00591916, No Iterations 295
DICPCG:  Solving for p, Initial residual = 0.00392, Final residual = 0.000390446, No Iterations 8
DICPCG:  Solving for p, Initial residual = 0.000627488, Final residual = 5.87637e-05, No Iterations 56
time step continuity errors : sum local = 0.00276296, global = -3.02707e-05, cumulative = 0.00138616
DILUPBiCG:  Solving for epsilon, Initial residual = 0.00867153, Final residual = 3.31029e-06, No Iterations 3
DILUPBiCG:  Solving for k, Initial residual = 0.0330146, Final residual = 5.20447e-07, No Iterations 5
ExecutionTime = 74.15 s  ClockTime = 75 s

Time = 18

DILUPBiCG:  Solving for Ux, Initial residual = 3.10731e-06, Final residual = 3.10731e-06, No Iterations 0
DILUPBiCG:  Solving for Uy, Initial residual = 1.07864e-06, Final residual = 1.07864e-06, No Iterations 0
DILUPBiCG:  Solving for Uz, Initial residual = 3.38807e-06, Final residual = 3.38807e-06, No Iterations 0
DICPCG:  Solving for p, Initial residual = 0.0226204, Final residual = 0.00224033, No Iterations 46
DICPCG:  Solving for p, Initial residual = 0.0056851, Final residual = 0.000562242, No Iterations 275
DICPCG:  Solving for p, Initial residual = 0.00192448, Final residual = 0.000191624, No Iterations 4
time step continuity errors : sum local = 0.00632773, global = -1.89012e-05, cumulative = 0.00136726
DILUPBiCG:  Solving for epsilon, Initial residual = 0.00847754, Final residual = 3.0144e-06, No Iterations 3
DILUPBiCG:  Solving for k, Initial residual = 0.0312863, Final residual = 8.45272e-07, No Iterations 4
ExecutionTime = 77.99 s  ClockTime = 78 s

Time = 19

DILUPBiCG:  Solving for Ux, Initial residual = 2.5449e-06, Final residual = 2.5449e-06, No Iterations 0
DILUPBiCG:  Solving for Uy, Initial residual = 1.26058e-06, Final residual = 1.26058e-06, No Iterations 0
DILUPBiCG:  Solving for Uz, Initial residual = 3.12091e-06, Final residual = 3.12091e-06, No Iterations 0
DICPCG:  Solving for p, Initial residual = 0.0175045, Final residual = 0.00164235, No Iterations 95
DICPCG:  Solving for p, Initial residual = 0.0055336, Final residual = 0.000542564, No Iterations 261
DICPCG:  Solving for p, Initial residual = 0.00324151, Final residual = 0.000320889, No Iterations 28
time step continuity errors : sum local = 0.00480221, global = 2.33379e-06, cumulative = 0.00136959
DILUPBiCG:  Solving for epsilon, Initial residual = 0.00829172, Final residual = 2.95711e-06, No Iterations 3
DILUPBiCG:  Solving for k, Initial residual = 0.0297597, Final residual = 8.31899e-07, No Iterations 4
ExecutionTime = 82.37 s  ClockTime = 83 s

Time = 20

DILUPBiCG:  Solving for Ux, Initial residual = 2.02112e-06, Final residual = 2.02112e-06, No Iterations 0
DILUPBiCG:  Solving for Uy, Initial residual = 1.09492e-06, Final residual = 1.09492e-06, No Iterations 0
DILUPBiCG:  Solving for Uz, Initial residual = 2.66699e-06, Final residual = 2.66699e-06, No Iterations 0
DICPCG:  Solving for p, Initial residual = 0.0160306, Final residual = 0.00158268, No Iterations 291
DICPCG:  Solving for p, Initial residual = 0.0287879, Final residual = 0.0027178, No Iterations 33
DICPCG:  Solving for p, Initial residual = 0.00615968, Final residual = 0.000584844, No Iterations 51
time step continuity errors : sum local = 0.00290392, global = 1.08334e-05, cumulative = 0.00138043
DILUPBiCG:  Solving for epsilon, Initial residual = 0.00813814, Final residual = 3.0686e-06, No Iterations 3
DILUPBiCG:  Solving for k, Initial residual = 0.0284374, Final residual = 8.94746e-07, No Iterations 4
ExecutionTime = 86.66 s  ClockTime = 87 s

forces porousforces write:
    sum of forces:
        pressure : (0 0 0)
        viscous  : (0 0 0)
        porous   : (112708 -8.93261e-13 87388.4)
    sum of moments:
        pressure : (0 0 0)
        viscous  : (0 0 0)
        porous   : (78063.4 14766.7 -98722.8)

volFieldValue volFieldValue_0 write:
    volIntegrate(cz_solid_0) of U = (2.23966e-09 -5.75807e-09 -5.37453e-09)

surfaceFieldValue massFlowAtFilter_0 write:
    sum(fz_solid_0) of phi = -1.15085e-06

volFieldValue volFieldValue_1 write:
    volIntegrate(cz_solid_1) of U = (5.13998e-10 -5.20265e-09 -4.75407e-09)

surfaceFieldValue massFlowAtFilter_1 write:
    sum(fz_solid_1) of phi = 3.38177e-05

volFieldValue volFieldValue_2 write:
    volIntegrate(cz_solid_2) of U = (-8.39678e-10 -5.16104e-09 -4.05273e-09)

surfaceFieldValue massFlowAtFilter_2 write:
    sum(fz_solid_2) of phi = 1.32779e-06

volFieldValue volFieldValue_3 write:
    volIntegrate(cz_solid_3) of U = (-1.93907e-09 -4.96591e-09 -3.08813e-09)

surfaceFieldValue massFlowAtFilter_3 write:
    sum(fz_solid_3) of phi = -3.71975e-05

volFieldValue volFieldValue_4 write:
    volIntegrate(cz_solid_4) of U = (-2.89275e-09 -4.88568e-09 -2.12587e-09)

surfaceFieldValue massFlowAtFilter_4 write:
    sum(fz_solid_4) of phi = -2.79184e-05

volFieldValue volFieldValue_5 write:
    volIntegrate(cz_solid_5) of U = (-3.71329e-09 -4.87777e-09 -1.03372e-09)

surfaceFieldValue massFlowAtFilter_5 write:
    sum(fz_solid_5) of phi = -6.05544e-05

volFieldValue volFieldValue_6 write:
    volIntegrate(cz_solid_6) of U = (-4.43196e-09 -4.86476e-09 2.58729e-10)

surfaceFieldValue massFlowAtFilter_6 write:
    sum(fz_solid_6) of phi = -4.30654e-05

volFieldValue volFieldValue_7 write:
    volIntegrate(cz_solid_7) of U = (-4.83827e-09 -5.01871e-09 1.96934e-09)

surfaceFieldValue massFlowAtFilter_7 write:
    sum(fz_solid_7) of phi = -5.07699e-05

volFieldValue volFieldValue_8 write:
    volIntegrate(cz_solid_8) of U = (-4.72817e-09 -5.36009e-09 3.77421e-09)

surfaceFieldValue massFlowAtFilter_8 write:
    sum(fz_solid_8) of phi = 1.31662e-05

volFieldValue volFieldValue_9 write:
    volIntegrate(cz_solid_9) of U = (-3.88139e-09 -5.66819e-09 5.717e-09)

surfaceFieldValue massFlowAtFilter_9 write:
    sum(fz_solid_9) of phi = -7.91823e-05

volFieldValue volFieldValue_10 write:
    volIntegrate(cz_solid_10) of U = (-2.04111e-09 -6.12462e-09 7.5146e-09)

surfaceFieldValue massFlowAtFilter_10 write:
    sum(fz_solid_10) of phi = 2.36128e-05

volFieldValue volFieldValue_11 write:
    volIntegrate(cz_solid_11) of U = (1.68273e-10 -6.43091e-09 8.64801e-09)

surfaceFieldValue massFlowAtFilter_11 write:
    sum(fz_solid_11) of phi = -5.60737e-05

volFieldValue volFieldValue_12 write:
    volIntegrate(cz_solid_12) of U = (3.18176e-09 -6.90437e-09 9.07666e-09)

surfaceFieldValue massFlowAtFilter_12 write:
    sum(fz_solid_12) of phi = -0.000204831

volFieldValue volFieldValue_13 write:
    volIntegrate(cz_solid_13) of U = (6.25084e-09 -7.39927e-09 8.22704e-09)

surfaceFieldValue massFlowAtFilter_13 write:
    sum(fz_solid_13) of phi = 6.32596e-05

volFieldValue volFieldValue_14 write:
    volIntegrate(cz_solid_14) of U = (8.87018e-09 -8.4072e-09 6.28512e-09)

surfaceFieldValue massFlowAtFilter_14 write:
    sum(fz_solid_14) of phi = -9.11878e-05

volFieldValue volFieldValue_15 write:
    volIntegrate(cz_solid_15) of U = (1.0423e-08 -8.7484e-09 3.26428e-09)

surfaceFieldValue massFlowAtFilter_15 write:
    sum(fz_solid_15) of phi = 7.16607e-05

volFieldValue volFieldValue_16 write:
    volIntegrate(cz_solid_16) of U = (1.02926e-08 -8.58889e-09 1.99795e-11)

surfaceFieldValue massFlowAtFilter_16 write:
    sum(fz_solid_16) of phi = -0.000114897

volFieldValue volFieldValue_17 write:
    volIntegrate(cz_solid_17) of U = (8.86721e-09 -8.10988e-09 -2.78527e-09)

surfaceFieldValue massFlowAtFilter_17 write:
    sum(fz_solid_17) of phi = 4.56654e-06

volFieldValue volFieldValue_18 write:
    volIntegrate(cz_solid_18) of U = (6.84829e-09 -7.46074e-09 -4.49333e-09)

surfaceFieldValue massFlowAtFilter_18 write:
    sum(fz_solid_18) of phi = 8.53087e-05

volFieldValue volFieldValue_19 write:
    volIntegrate(cz_solid_19) of U = (4.46041e-09 -6.57928e-09 -5.39193e-09)

surfaceFieldValue massFlowAtFilter_19 write:
    sum(fz_solid_19) of phi = 7.66965e-05

volFieldValue volFieldValue_20 write:
    volIntegrate(cz_solid_20) of U = (1.88048e-09 -1.15904e-08 -4.02392e-09)

surfaceFieldValue massFlowAtFilter_20 write:
    sum(fz_solid_20) of phi = -1.60044e-05

volFieldValue volFieldValue_21 write:
    volIntegrate(cz_solid_21) of U = (4.76659e-10 -1.06326e-08 -3.5735e-09)

surfaceFieldValue massFlowAtFilter_21 write:
    sum(fz_solid_21) of phi = 2.31705e-05

volFieldValue volFieldValue_22 write:
    volIntegrate(cz_solid_22) of U = (-5.92963e-10 -1.05026e-08 -3.04087e-09)

surfaceFieldValue massFlowAtFilter_22 write:
    sum(fz_solid_22) of phi = 6.81645e-06

volFieldValue volFieldValue_23 write:
    volIntegrate(cz_solid_23) of U = (-1.4602e-09 -9.94476e-09 -2.28951e-09)

surfaceFieldValue massFlowAtFilter_23 write:
    sum(fz_solid_23) of phi = -1.92418e-05

volFieldValue volFieldValue_24 write:
    volIntegrate(cz_solid_24) of U = (-2.18533e-09 -9.85177e-09 -1.52929e-09)

surfaceFieldValue massFlowAtFilter_24 write:
    sum(fz_solid_24) of phi = -3.00013e-05

volFieldValue volFieldValue_25 write:
    volIntegrate(cz_solid_25) of U = (-2.82178e-09 -9.69063e-09 -6.89331e-10)

surfaceFieldValue massFlowAtFilter_25 write:
    sum(fz_solid_25) of phi = -2.22039e-06

volFieldValue volFieldValue_26 write:
    volIntegrate(cz_solid_26) of U = (-3.36773e-09 -9.64472e-09 3.18494e-10)

surfaceFieldValue massFlowAtFilter_26 write:
    sum(fz_solid_26) of phi = -7.36261e-06

volFieldValue volFieldValue_27 write:
    volIntegrate(cz_solid_27) of U = (-3.63559e-09 -1.0054e-08 1.66469e-09)

surfaceFieldValue massFlowAtFilter_27 write:
    sum(fz_solid_27) of phi = 5.45734e-06

volFieldValue volFieldValue_28 write:
    volIntegrate(cz_solid_28) of U = (-3.49215e-09 -1.06876e-08 3.06728e-09)

surfaceFieldValue massFlowAtFilter_28 write:
    sum(fz_solid_28) of phi = -1.31388e-05

volFieldValue volFieldValue_29 write:
    volIntegrate(cz_solid_29) of U = (-2.76358e-09 -1.14195e-08 4.54151e-09)

surfaceFieldValue massFlowAtFilter_29 write:
    sum(fz_solid_29) of phi = 5.62884e-05

volFieldValue volFieldValue_30 write:
    volIntegrate(cz_solid_30) of U = (-1.25065e-09 -1.26937e-08 5.86973e-09)

surfaceFieldValue massFlowAtFilter_30 write:
    sum(fz_solid_30) of phi = 3.18336e-05

volFieldValue volFieldValue_31 write:
    volIntegrate(cz_solid_31) of U = (4.81339e-10 -1.41122e-08 6.6329e-09)

surfaceFieldValue massFlowAtFilter_31 write:
    sum(fz_solid_31) of phi = -2.39089e-05

volFieldValue volFieldValue_32 write:
    volIntegrate(cz_solid_32) of U = (2.75736e-09 -1.62028e-08 6.87057e-09)

surfaceFieldValue massFlowAtFilter_32 write:
    sum(fz_solid_32) of phi = -4.33015e-05

volFieldValue volFieldValue_33 write:
    volIntegrate(cz_solid_33) of U = (5.03124e-09 -1.76103e-08 6.25179e-09)

surfaceFieldValue massFlowAtFilter_33 write:
    sum(fz_solid_33) of phi = 1.9911e-07

volFieldValue volFieldValue_34 write:
    volIntegrate(cz_solid_34) of U = (7.03495e-09 -1.88522e-08 4.95418e-09)

surfaceFieldValue massFlowAtFilter_34 write:
    sum(fz_solid_34) of phi = -5.14267e-05

volFieldValue volFieldValue_35 write:
    volIntegrate(cz_solid_35) of U = (8.30701e-09 -1.94953e-08 2.8705e-09)

surfaceFieldValue massFlowAtFilter_35 write:
    sum(fz_solid_35) of phi = 2.93929e-05

volFieldValue volFieldValue_36 write:
    volIntegrate(cz_solid_36) of U = (8.32249e-09 -1.85618e-08 4.83602e-10)

surfaceFieldValue massFlowAtFilter_36 write:
    sum(fz_solid_36) of phi = -1.93788e-05

volFieldValue volFieldValue_37 write:
    volIntegrate(cz_solid_37) of U = (7.27498e-09 -1.64528e-08 -1.73513e-09)

surfaceFieldValue massFlowAtFilter_37 write:
    sum(fz_solid_37) of phi = 9.43576e-05

volFieldValue volFieldValue_38 write:
    volIntegrate(cz_solid_38) of U = (5.68215e-09 -1.4795e-08 -3.19052e-09)

surfaceFieldValue massFlowAtFilter_38 write:
    sum(fz_solid_38) of phi = 6.47685e-05

volFieldValue volFieldValue_39 write:
    volIntegrate(cz_solid_39) of U = (3.71334e-09 -1.32787e-08 -4.00623e-09)

surfaceFieldValue massFlowAtFilter_39 write:
    sum(fz_solid_39) of phi = 3.43159e-05

volFieldValue volFieldValue_40 write:
    volIntegrate(cz_solid_40) of U = (1.12835e-09 -1.08983e-08 -1.77976e-09)

surfaceFieldValue massFlowAtFilter_40 write:
    sum(fz_solid_40) of phi = 2.04563e-05

volFieldValue volFieldValue_41 write:
    volIntegrate(cz_solid_41) of U = (3.62515e-10 -9.96009e-09 -1.6442e-09)

surfaceFieldValue massFlowAtFilter_41 write:
    sum(fz_solid_41) of phi = 3.48943e-05

volFieldValue volFieldValue_42 write:
    volIntegrate(cz_solid_42) of U = (-2.21778e-10 -9.87167e-09 -1.40151e-09)

surfaceFieldValue massFlowAtFilter_42 write:
    sum(fz_solid_42) of phi = 4.17652e-06

volFieldValue volFieldValue_43 write:
    volIntegrate(cz_solid_43) of U = (-7.04763e-10 -9.35408e-09 -1.01003e-09)

surfaceFieldValue massFlowAtFilter_43 write:
    sum(fz_solid_43) of phi = 1.21179e-05

volFieldValue volFieldValue_44 write:
    volIntegrate(cz_solid_44) of U = (-1.13525e-09 -9.24742e-09 -6.03086e-10)

surfaceFieldValue massFlowAtFilter_44 write:
    sum(fz_solid_44) of phi = 2.17115e-06

volFieldValue volFieldValue_45 write:
    volIntegrate(cz_solid_45) of U = (-1.53896e-09 -9.05855e-09 -1.54438e-10)

surfaceFieldValue massFlowAtFilter_45 write:
    sum(fz_solid_45) of phi = 8.88709e-06

volFieldValue volFieldValue_46 write:
    volIntegrate(cz_solid_46) of U = (-1.89973e-09 -8.90909e-09 4.33367e-10)

surfaceFieldValue massFlowAtFilter_46 write:
    sum(fz_solid_46) of phi = 3.57881e-06

volFieldValue volFieldValue_47 write:
    volIntegrate(cz_solid_47) of U = (-2.0515e-09 -9.07945e-09 1.28662e-09)

surfaceFieldValue massFlowAtFilter_47 write:
    sum(fz_solid_47) of phi = 3.55267e-06

volFieldValue volFieldValue_48 write:
    volIntegrate(cz_solid_48) of U = (-1.92794e-09 -9.5342e-09 2.17749e-09)

surfaceFieldValue massFlowAtFilter_48 write:
    sum(fz_solid_48) of phi = -6.59441e-06

volFieldValue volFieldValue_49 write:
    volIntegrate(cz_solid_49) of U = (-1.38573e-09 -9.98601e-09 3.13151e-09)

surfaceFieldValue massFlowAtFilter_49 write:
    sum(fz_solid_49) of phi = 4.1981e-05

volFieldValue volFieldValue_50 write:
    volIntegrate(cz_solid_50) of U = (-2.75255e-10 -1.07604e-08 3.98874e-09)

surfaceFieldValue massFlowAtFilter_50 write:
    sum(fz_solid_50) of phi = 3.17315e-05

volFieldValue volFieldValue_51 write:
    volIntegrate(cz_solid_51) of U = (9.5118e-10 -1.19126e-08 4.44016e-09)

surfaceFieldValue massFlowAtFilter_51 write:
    sum(fz_solid_51) of phi = 1.30829e-05

volFieldValue volFieldValue_52 write:
    volIntegrate(cz_solid_52) of U = (2.56874e-09 -1.3795e-08 4.57478e-09)

surfaceFieldValue massFlowAtFilter_52 write:
    sum(fz_solid_52) of phi = 1.02817e-05

volFieldValue volFieldValue_53 write:
    volIntegrate(cz_solid_53) of U = (4.22872e-09 -1.61732e-08 4.27527e-09)

surfaceFieldValue massFlowAtFilter_53 write:
    sum(fz_solid_53) of phi = 5.28068e-05

volFieldValue volFieldValue_54 write:
    volIntegrate(cz_solid_54) of U = (5.85702e-09 -1.9104e-08 3.7226e-09)

surfaceFieldValue massFlowAtFilter_54 write:
    sum(fz_solid_54) of phi = -1.37275e-05

volFieldValue volFieldValue_55 write:
    volIntegrate(cz_solid_55) of U = (6.97674e-09 -2.20284e-08 2.76671e-09)

surfaceFieldValue massFlowAtFilter_55 write:
    sum(fz_solid_55) of phi = 3.21212e-05

volFieldValue volFieldValue_56 write:
    volIntegrate(cz_solid_56) of U = (6.58713e-09 -2.19799e-08 1.72351e-09)

surfaceFieldValue massFlowAtFilter_56 write:
    sum(fz_solid_56) of phi = 3.31018e-05

volFieldValue volFieldValue_57 write:
    volIntegrate(cz_solid_57) of U = (4.98939e-09 -1.78825e-08 4.42558e-10)

surfaceFieldValue massFlowAtFilter_57 write:
    sum(fz_solid_57) of phi = 4.67768e-05

volFieldValue volFieldValue_58 write:
    volIntegrate(cz_solid_58) of U = (3.39759e-09 -1.45144e-08 -9.59362e-10)

surfaceFieldValue massFlowAtFilter_58 write:
    sum(fz_solid_58) of phi = 5.30813e-05

volFieldValue volFieldValue_59 write:
    volIntegrate(cz_solid_59) of U = (2.14878e-09 -1.26267e-08 -1.63512e-09)

surfaceFieldValue massFlowAtFilter_59 write:
    sum(fz_solid_59) of phi = 5.33768e-05

volFieldValue volFieldValue_60 write:
    volIntegrate(cz_solid_60) of U = (1.24723e-11 -8.1983e-09 3.55911e-10)

surfaceFieldValue massFlowAtFilter_60 write:
    sum(fz_solid_60) of phi = -1.3744e-05

volFieldValue volFieldValue_61 write:
    volIntegrate(cz_solid_61) of U = (5.32087e-11 -7.23477e-09 4.14618e-11)

surfaceFieldValue massFlowAtFilter_61 write:
    sum(fz_solid_61) of phi = -6.90066e-06

volFieldValue volFieldValue_62 write:
    volIntegrate(cz_solid_62) of U = (-5.67905e-11 -6.99545e-09 -6.23912e-11)

surfaceFieldValue massFlowAtFilter_62 write:
    sum(fz_solid_62) of phi = -1.34072e-05

volFieldValue volFieldValue_63 write:
    volIntegrate(cz_solid_63) of U = (-2.4136e-10 -6.42252e-09 -1.93963e-11)

surfaceFieldValue massFlowAtFilter_63 write:
    sum(fz_solid_63) of phi = -1.37901e-05

volFieldValue volFieldValue_64 write:
    volIntegrate(cz_solid_64) of U = (-4.87165e-10 -6.27837e-09 7.11122e-11)

surfaceFieldValue massFlowAtFilter_64 write:
    sum(fz_solid_64) of phi = -1.40251e-05

volFieldValue volFieldValue_65 write:
    volIntegrate(cz_solid_65) of U = (-7.52559e-10 -6.09984e-09 2.22065e-10)

surfaceFieldValue massFlowAtFilter_65 write:
    sum(fz_solid_65) of phi = -1.71391e-05

volFieldValue volFieldValue_66 write:
    volIntegrate(cz_solid_66) of U = (-1.01431e-09 -6.00714e-09 5.4918e-10)

surfaceFieldValue massFlowAtFilter_66 write:
    sum(fz_solid_66) of phi = -2.65243e-05

volFieldValue volFieldValue_67 write:
    volIntegrate(cz_solid_67) of U = (-1.12052e-09 -6.12426e-09 1.11753e-09)

surfaceFieldValue massFlowAtFilter_67 write:
    sum(fz_solid_67) of phi = -2.11775e-05

volFieldValue volFieldValue_68 write:
    volIntegrate(cz_solid_68) of U = (-1.01997e-09 -6.4018e-09 1.73476e-09)

surfaceFieldValue massFlowAtFilter_68 write:
    sum(fz_solid_68) of phi = -3.63085e-05

volFieldValue volFieldValue_69 write:
    volIntegrate(cz_solid_69) of U = (-5.81791e-10 -6.77e-09 2.46966e-09)

surfaceFieldValue massFlowAtFilter_69 write:
    sum(fz_solid_69) of phi = -7.46883e-07

volFieldValue volFieldValue_70 write:
    volIntegrate(cz_solid_70) of U = (3.56511e-10 -7.44526e-09 3.18892e-09)

surfaceFieldValue massFlowAtFilter_70 write:
    sum(fz_solid_70) of phi = 5.90919e-06

volFieldValue volFieldValue_71 write:
    volIntegrate(cz_solid_71) of U = (1.45296e-09 -8.65379e-09 3.61584e-09)

surfaceFieldValue massFlowAtFilter_71 write:
    sum(fz_solid_71) of phi = -4.87747e-06

volFieldValue volFieldValue_72 write:
    volIntegrate(cz_solid_72) of U = (3.1126e-09 -1.07627e-08 3.81441e-09)

surfaceFieldValue massFlowAtFilter_72 write:
    sum(fz_solid_72) of phi = -2.24999e-05

volFieldValue volFieldValue_73 write:
    volIntegrate(cz_solid_73) of U = (5.1668e-09 -1.39522e-08 3.74219e-09)

surfaceFieldValue massFlowAtFilter_73 write:
    sum(fz_solid_73) of phi = 5.79011e-06

volFieldValue volFieldValue_74 write:
    volIntegrate(cz_solid_74) of U = (8.00087e-09 -1.92327e-08 3.44656e-09)

surfaceFieldValue massFlowAtFilter_74 write:
    sum(fz_solid_74) of phi = -8.51792e-05

volFieldValue volFieldValue_75 write:
    volIntegrate(cz_solid_75) of U = (1.13466e-08 -2.85641e-08 2.35596e-09)

surfaceFieldValue massFlowAtFilter_75 write:
    sum(fz_solid_75) of phi = -7.79436e-05

volFieldValue volFieldValue_76 write:
    volIntegrate(cz_solid_76) of U = (1.25971e-08 -4.2942e-08 1.70844e-09)

surfaceFieldValue massFlowAtFilter_76 write:
    sum(fz_solid_76) of phi = -0.000116295

volFieldValue volFieldValue_77 write:
    volIntegrate(cz_solid_77) of U = (4.94657e-09 -3.71709e-08 9.71874e-09)

surfaceFieldValue massFlowAtFilter_77 write:
    sum(fz_solid_77) of phi = -6.31703e-05

volFieldValue volFieldValue_78 write:
    volIntegrate(cz_solid_78) of U = (-2.91745e-09 -1.37141e-08 1.73452e-09)

surfaceFieldValue massFlowAtFilter_78 write:
    sum(fz_solid_78) of phi = -4.68134e-05

volFieldValue volFieldValue_79 write:
    volIntegrate(cz_solid_79) of U = (-6.61988e-10 -9.3295e-09 8.01147e-10)

surfaceFieldValue massFlowAtFilter_79 write:
    sum(fz_solid_79) of phi = -1.67984e-05

volFieldValue volFieldValue_80 write:
    volIntegrate(cz_solid_80) of U = (-8.42871e-10 -4.15951e-09 1.64706e-09)

surfaceFieldValue massFlowAtFilter_80 write:
    sum(fz_solid_80) of phi = -7.07616e-06

volFieldValue volFieldValue_81 write:
    volIntegrate(cz_solid_81) of U = (-2.31884e-10 -3.49681e-09 1.04343e-09)

surfaceFieldValue massFlowAtFilter_81 write:
    sum(fz_solid_81) of phi = -2.38677e-06

volFieldValue volFieldValue_82 write:
    volIntegrate(cz_solid_82) of U = (-5.33541e-11 -3.14457e-09 6.84722e-10)

surfaceFieldValue massFlowAtFilter_82 write:
    sum(fz_solid_82) of phi = 4.10843e-06

volFieldValue volFieldValue_83 write:
    volIntegrate(cz_solid_83) of U = (-6.69248e-11 -2.79196e-09 5.07533e-10)

surfaceFieldValue massFlowAtFilter_83 write:
    sum(fz_solid_83) of phi = -9.78988e-06

volFieldValue volFieldValue_84 write:
    volIntegrate(cz_solid_84) of U = (-2.24203e-10 -2.6332e-09 4.23355e-10)

surfaceFieldValue massFlowAtFilter_84 write:
    sum(fz_solid_84) of phi = 1.55723e-05

volFieldValue volFieldValue_85 write:
    volIntegrate(cz_solid_85) of U = (-4.05406e-10 -2.4741e-09 4.44928e-10)

surfaceFieldValue massFlowAtFilter_85 write:
    sum(fz_solid_85) of phi = -1.72974e-05

volFieldValue volFieldValue_86 write:
    volIntegrate(cz_solid_86) of U = (-5.91174e-10 -2.35427e-09 6.62773e-10)

surfaceFieldValue massFlowAtFilter_86 write:
    sum(fz_solid_86) of phi = -8.95444e-06

volFieldValue volFieldValue_87 write:
    volIntegrate(cz_solid_87) of U = (-6.39376e-10 -2.41888e-09 1.09247e-09)

surfaceFieldValue massFlowAtFilter_87 write:
    sum(fz_solid_87) of phi = -1.02631e-05

volFieldValue volFieldValue_88 write:
    volIntegrate(cz_solid_88) of U = (-5.26706e-10 -2.61721e-09 1.56555e-09)

surfaceFieldValue massFlowAtFilter_88 write:
    sum(fz_solid_88) of phi = -2.04879e-05

volFieldValue volFieldValue_89 write:
    volIntegrate(cz_solid_89) of U = (-1.11711e-10 -2.77682e-09 2.18705e-09)

surfaceFieldValue massFlowAtFilter_89 write:
    sum(fz_solid_89) of phi = -2.40122e-05

volFieldValue volFieldValue_90 write:
    volIntegrate(cz_solid_90) of U = (7.71084e-10 -3.1185e-09 2.85205e-09)

surfaceFieldValue massFlowAtFilter_90 write:
    sum(fz_solid_90) of phi = 2.48311e-05

volFieldValue volFieldValue_91 write:
    volIntegrate(cz_solid_91) of U = (1.90164e-09 -3.64488e-09 3.24721e-09)

surfaceFieldValue massFlowAtFilter_91 write:
    sum(fz_solid_91) of phi = 7.86734e-06

volFieldValue volFieldValue_92 write:
    volIntegrate(cz_solid_92) of U = (3.77549e-09 -4.56403e-09 3.34623e-09)

surfaceFieldValue massFlowAtFilter_92 write:
    sum(fz_solid_92) of phi = 5.51205e-05

volFieldValue volFieldValue_93 write:
    volIntegrate(cz_solid_93) of U = (6.35926e-09 -6.41739e-09 3.12109e-09)

surfaceFieldValue massFlowAtFilter_93 write:
    sum(fz_solid_93) of phi = 6.60299e-05

volFieldValue volFieldValue_94 write:
    volIntegrate(cz_solid_94) of U = (1.05289e-08 -9.20348e-09 2.59872e-09)

surfaceFieldValue massFlowAtFilter_94 write:
    sum(fz_solid_94) of phi = 0.000148432

volFieldValue volFieldValue_95 write:
[...]

surfaceFieldValue massFlowAtFilter_98 write:
    sum(fz_solid_98) of phi = -0.000222366

volFieldValue volFieldValue_99 write:
    volIntegrate(cz_solid_99) of U = (-7.30755e-10 2.8585e-08 4.6973e-10)

surfaceFieldValue massFlowAtFilter_99 write:
    sum(fz_solid_99) of phi = 0.000284403

Time = 1101

DILUPBiCG:  Solving for Ux, Initial residual = 1.535e-07, Final residual = 1.535e-07, No Iterations 0
DILUPBiCG:  Solving for Uy, Initial residual = 1.41277e-07, Final residual = 1.41277e-07, No Iterations 0
DILUPBiCG:  Solving for Uz, Initial residual = 3.01265e-07, Final residual = 3.01265e-07, No Iterations 0
DICPCG:  Solving for p, Initial residual = 0.00104003, Final residual = 0.000102647, No Iterations 11
DICPCG:  Solving for p, Initial residual = 0.000238696, Final residual = 2.29361e-05, No Iterations 30
DICPCG:  Solving for p, Initial residual = 5.72863e-05, Final residual = 9.52092e-06, No Iterations 74
time step continuity errors : sum local = 9.66943e-05, global = -1.18875e-05, cumulative = -0.00164725
DILUPBiCG:  Solving for epsilon, Initial residual = 0.000708198, Final residual = 3.20219e-07, No Iterations 3
DILUPBiCG:  Solving for k, Initial residual = 0.000820051, Final residual = 3.87973e-07, No Iterations 3
ExecutionTime = 2594.3 s  ClockTime = 2683 s

Time = 1102

DILUPBiCG:  Solving for Ux, Initial residual = 1.5288e-07, Final residual = 1.5288e-07, No Iterations 0
DILUPBiCG:  Solving for Uy, Initial residual = 1.41294e-07, Final residual = 1.41294e-07, No Iterations 0
DILUPBiCG:  Solving for Uz, Initial residual = 3.00136e-07, Final residual = 3.00136e-07, No Iterations 0
DICPCG:  Solving for p, Initial residual = 0.00104023, Final residual = 0.000102135, No Iterations 11
DICPCG:  Solving for p, Initial residual = 0.0002386, Final residual = 2.30552e-05, No Iterations 29
DICPCG:  Solving for p, Initial residual = 5.78225e-05, Final residual = 9.93916e-06, No Iterations 73
time step continuity errors : sum local = 0.000100972, global = -1.29843e-05, cumulative = -0.00166023
DILUPBiCG:  Solving for epsilon, Initial residual = 0.000707024, Final residual = 3.15032e-07, No Iterations 3
DILUPBiCG:  Solving for k, Initial residual = 0.000818438, Final residual = 3.8606e-07, No Iterations 3
ExecutionTime = 2596.32 s  ClockTime = 2685 s

Time = 1103

DILUPBiCG:  Solving for Ux, Initial residual = 1.52272e-07, Final residual = 1.52272e-07, No Iterations 0
DILUPBiCG:  Solving for Uy, Initial residual = 1.4131e-07, Final residual = 1.4131e-07, No Iterations 0
DILUPBiCG:  Solving for Uz, Initial residual = 2.99013e-07, Final residual = 2.99013e-07, No Iterations 0
DICPCG:  Solving for p, Initial residual = 0.00104006, Final residual = 0.000100697, No Iterations 11
DICPCG:  Solving for p, Initial residual = 0.000238323, Final residual = 2.35609e-05, No Iterations 28
DICPCG:  Solving for p, Initial residual = 5.81809e-05, Final residual = 9.78499e-06, No Iterations 80
time step continuity errors : sum local = 9.9438e-05, global = -1.43225e-05, cumulative = -0.00167456
DILUPBiCG:  Solving for epsilon, Initial residual = 0.000705878, Final residual = 3.09131e-07, No Iterations 3
DILUPBiCG:  Solving for k, Initial residual = 0.00081684, Final residual = 3.84178e-07, No Iterations 3
ExecutionTime = 2598.39 s  ClockTime = 2688 s

Time = 1104

DILUPBiCG:  Solving for Ux, Initial residual = 1.51674e-07, Final residual = 1.51674e-07, No Iterations 0
DILUPBiCG:  Solving for Uy, Initial residual = 1.41327e-07, Final residual = 1.41327e-07, No Iterations 0
DILUPBiCG:  Solving for Uz, Initial residual = 2.97895e-07, Final residual = 2.97895e-07, No Iterations 0
DICPCG:  Solving for p, Initial residual = 0.00104397, Final residual = 0.000104071, No Iterations 8
DICPCG:  Solving for p, Initial residual = 0.00023837, Final residual = 2.18139e-05, No Iterations 30
DICPCG:  Solving for p, Initial residual = 6.06815e-05, Final residual = 9.81811e-06, No Iterations 85
time step continuity errors : sum local = 9.98108e-05, global = -1.61923e-05, cumulative = -0.00169075
DILUPBiCG:  Solving for epsilon, Initial residual = 0.000704769, Final residual = 3.02326e-07, No Iterations 3
bounding epsilon, min: -0.0084292 max: 16263.1 average: 54.6978
DILUPBiCG:  Solving for k, Initial residual = 0.000815247, Final residual = 3.82313e-07, No Iterations 3
ExecutionTime = 2600.52 s  ClockTime = 2690 s

Time = 1105

DILUPBiCG:  Solving for Ux, Initial residual = 1.51091e-07, Final residual = 1.51091e-07, No Iterations 0
DILUPBiCG:  Solving for Uy, Initial residual = 1.41345e-07, Final residual = 1.41345e-07, No Iterations 0
DILUPBiCG:  Solving for Uz, Initial residual = 2.96792e-07, Final residual = 2.96792e-07, No Iterations 0
DICPCG:  Solving for p, Initial residual = 0.0010473, Final residual = 9.94853e-05, No Iterations 8
DICPCG:  Solving for p, Initial residual = 0.000235797, Final residual = 2.24527e-05, No Iterations 29
DICPCG:  Solving for p, Initial residual = 6.17942e-05, Final residual = 9.90488e-06, No Iterations 98
time step continuity errors : sum local = 0.000100733, global = -1.80761e-05, cumulative = -0.00170882
DILUPBiCG:  Solving for epsilon, Initial residual = 0.000703699, Final residual = 9.75901e-06, No Iterations 2
DILUPBiCG:  Solving for k, Initial residual = 0.000813697, Final residual = 3.80368e-07, No Iterations 3
ExecutionTime = 2602.7 s  ClockTime = 2692 s

Time = 1106

DILUPBiCG:  Solving for Ux, Initial residual = 1.50524e-07, Final residual = 1.50524e-07, No Iterations 0
DILUPBiCG:  Solving for Uy, Initial residual = 1.41362e-07, Final residual = 1.41362e-07, No Iterations 0
DILUPBiCG:  Solving for Uz, Initial residual = 2.95715e-07, Final residual = 2.95715e-07, No Iterations 0
DICPCG:  Solving for p, Initial residual = 0.00105355, Final residual = 0.000102332, No Iterations 7
DICPCG:  Solving for p, Initial residual = 0.000237737, Final residual = 2.28142e-05, No Iterations 27
DICPCG:  Solving for p, Initial residual = 6.41437e-05, Final residual = 9.96948e-06, No Iterations 37
time step continuity errors : sum local = 0.000101433, global = -2.39769e-05, cumulative = -0.0017328
DILUPBiCG:  Solving for epsilon, Initial residual = 0.000702545, Final residual = 8.01308e-06, No Iterations 2
bounding epsilon, min: -0.000672763 max: 16263.1 average: 54.6905
DILUPBiCG:  Solving for k, Initial residual = 0.000812167, Final residual = 3.78656e-07, No Iterations 3
ExecutionTime = 2604.37 s  ClockTime = 2694 s

Time = 1107

DILUPBiCG:  Solving for Ux, Initial residual = 1.49972e-07, Final residual = 1.49972e-07, No Iterations 0
DILUPBiCG:  Solving for Uy, Initial residual = 1.4137e-07, Final residual = 1.4137e-07, No Iterations 0
DILUPBiCG:  Solving for Uz, Initial residual = 2.94641e-07, Final residual = 2.94641e-07, No Iterations 0
DICPCG:  Solving for p, Initial residual = 0.00105495, Final residual = 0.000102247, No Iterations 7
DICPCG:  Solving for p, Initial residual = 0.000237767, Final residual = 2.31656e-05, No Iterations 26
DICPCG:  Solving for p, Initial residual = 6.44977e-05, Final residual = 9.99526e-06, No Iterations 241
time step continuity errors : sum local = 0.000101733, global = -1.24835e-08, cumulative = -0.00173281
DILUPBiCG:  Solving for epsilon, Initial residual = 0.000701622, Final residual = 8.16899e-06, No Iterations 2
DILUPBiCG:  Solving for k, Initial residual = 0.000810724, Final residual = 3.77251e-07, No Iterations 3
ExecutionTime = 2607.77 s  ClockTime = 2697 s

Time = 1108

DILUPBiCG:  Solving for Ux, Initial residual = 1.49417e-07, Final residual = 1.49417e-07, No Iterations 0
DILUPBiCG:  Solving for Uy, Initial residual = 1.41441e-07, Final residual = 1.41441e-07, No Iterations 0
DILUPBiCG:  Solving for Uz, Initial residual = 2.93612e-07, Final residual = 2.93612e-07, No Iterations 0
DICPCG:  Solving for p, Initial residual = 0.00105334, Final residual = 0.000104079, No Iterations 7
DICPCG:  Solving for p, Initial residual = 0.000238622, Final residual = 2.27127e-05, No Iterations 26
DICPCG:  Solving for p, Initial residual = 6.3859e-05, Final residual = 9.48164e-06, No Iterations 85
time step continuity errors : sum local = 9.66892e-05, global = -1.60975e-05, cumulative = -0.00174891
DILUPBiCG:  Solving for epsilon, Initial residual = 0.000700487, Final residual = 8.48244e-06, No Iterations 2
DILUPBiCG:  Solving for k, Initial residual = 0.000809201, Final residual = 3.75826e-07, No Iterations 3
ExecutionTime = 2609.81 s  ClockTime = 2699 s

Time = 1109

DILUPBiCG:  Solving for Ux, Initial residual = 1.4886e-07, Final residual = 1.4886e-07, No Iterations 0
DILUPBiCG:  Solving for Uy, Initial residual = 1.41454e-07, Final residual = 1.41454e-07, No Iterations 0
DILUPBiCG:  Solving for Uz, Initial residual = 2.92482e-07, Final residual = 2.92482e-07, No Iterations 0
DICPCG:  Solving for p, Initial residual = 0.00104039, Final residual = 0.000103639, No Iterations 9
DICPCG:  Solving for p, Initial residual = 0.00023643, Final residual = 2.20676e-05, No Iterations 24
DICPCG:  Solving for p, Initial residual = 5.90508e-05, Final residual = 9.44985e-06, No Iterations 83
time step continuity errors : sum local = 9.64026e-05, global = -1.33949e-05, cumulative = -0.00176231
DILUPBiCG:  Solving for epsilon, Initial residual = 0.000699009, Final residual = 3.19937e-07, No Iterations 3
DILUPBiCG:  Solving for k, Initial residual = 0.000807702, Final residual = 3.74931e-07, No Iterations 3
ExecutionTime = 2611.85 s  ClockTime = 2701 s

Time = 1110

DILUPBiCG:  Solving for Ux, Initial residual = 1.48288e-07, Final residual = 1.48288e-07, No Iterations 0
DILUPBiCG:  Solving for Uy, Initial residual = 1.41467e-07, Final residual = 1.41467e-07, No Iterations 0
DILUPBiCG:  Solving for Uz, Initial residual = 2.91354e-07, Final residual = 2.91354e-07, No Iterations 0
DICPCG:  Solving for p, Initial residual = 0.0010294, Final residual = 0.000102158, No Iterations 9
DICPCG:  Solving for p, Initial residual = 0.000233971, Final residual = 2.30832e-05, No Iterations 24
DICPCG:  Solving for p, Initial residual = 5.87928e-05, Final residual = 9.78252e-06, No Iterations 68
time step continuity errors : sum local = 9.98409e-05, global = -1.16687e-05, cumulative = -0.00177397
DILUPBiCG:  Solving for epsilon, Initial residual = 0.000698038, Final residual = 3.27444e-07, No Iterations 3
bounding epsilon, min: -0.00444394 max: 16263.1 average: 54.6739
DILUPBiCG:  Solving for k, Initial residual = 0.000806234, Final residual = 3.73554e-07, No Iterations 3
ExecutionTime = 2613.79 s  ClockTime = 2703 s

Time = 1111

DILUPBiCG:  Solving for Ux, Initial residual = 1.47729e-07, Final residual = 1.47729e-07, No Iterations 0
DILUPBiCG:  Solving for Uy, Initial residual = 1.41479e-07, Final residual = 1.41479e-07, No Iterations 0
DILUPBiCG:  Solving for Uz, Initial residual = 2.90245e-07, Final residual = 2.90245e-07, No Iterations 0
DICPCG:  Solving for p, Initial residual = 0.00102113, Final residual = 0.000100619, No Iterations 11
DICPCG:  Solving for p, Initial residual = 0.000234818, Final residual = 2.28156e-05, No Iterations 26
DICPCG:  Solving for p, Initial residual = 5.5879e-05, Final residual = 9.68678e-06, No Iterations 59
time step continuity errors : sum local = 9.89119e-05, global = -8.98979e-06, cumulative = -0.00178296
DILUPBiCG:  Solving for epsilon, Initial residual = 0.000696874, Final residual = 3.28542e-07, No Iterations 3
bounding epsilon, min: -0.000150883 max: 16263.1 average: 54.6693
DILUPBiCG:  Solving for k, Initial residual = 0.000804761, Final residual = 3.72214e-07, No Iterations 3
ExecutionTime = 2615.68 s  ClockTime = 2705 s

Time = 1112

DILUPBiCG:  Solving for Ux, Initial residual = 1.47188e-07, Final residual = 1.47188e-07, No Iterations 0
DILUPBiCG:  Solving for Uy, Initial residual = 1.41494e-07, Final residual = 1.41494e-07, No Iterations 0
DILUPBiCG:  Solving for Uz, Initial residual = 2.89171e-07, Final residual = 2.89171e-07, No Iterations 0
DICPCG:  Solving for p, Initial residual = 0.00101002, Final residual = 9.87647e-05, No Iterations 12
DICPCG:  Solving for p, Initial residual = 0.000233317, Final residual = 2.21486e-05, No Iterations 22
DICPCG:  Solving for p, Initial residual = 5.47483e-05, Final residual = 9.52422e-06, No Iterations 60
time step continuity errors : sum local = 9.7304e-05, global = -8.17159e-06, cumulative = -0.00179114
DILUPBiCG:  Solving for epsilon, Initial residual = 0.000695693, Final residual = 3.23131e-07, No Iterations 3
bounding epsilon, min: -0.00967137 max: 16263.1 average: 54.6646
DILUPBiCG:  Solving for k, Initial residual = 0.00080331, Final residual = 3.70861e-07, No Iterations 3
ExecutionTime = 2617.56 s  ClockTime = 2707 s

Time = 1113

DILUPBiCG:  Solving for Ux, Initial residual = 1.46659e-07, Final residual = 1.46659e-07, No Iterations 0
DILUPBiCG:  Solving for Uy, Initial residual = 1.4151e-07, Final residual = 1.4151e-07, No Iterations 0
DILUPBiCG:  Solving for Uz, Initial residual = 2.88101e-07, Final residual = 2.88101e-07, No Iterations 0
DICPCG:  Solving for p, Initial residual = 0.00100616, Final residual = 9.94419e-05, No Iterations 12
DICPCG:  Solving for p, Initial residual = 0.000233642, Final residual = 2.14224e-05, No Iterations 22
DICPCG:  Solving for p, Initial residual = 5.41584e-05, Final residual = 9.57776e-06, No Iterations 59
time step continuity errors : sum local = 9.79082e-05, global = -7.63957e-06, cumulative = -0.00179877
DILUPBiCG:  Solving for epsilon, Initial residual = 0.000694569, Final residual = 3.16522e-07, No Iterations 3
DILUPBiCG:  Solving for k, Initial residual = 0.000801888, Final residual = 3.69527e-07, No Iterations 3
ExecutionTime = 2619.43 s  ClockTime = 2709 s

Time = 1114

DILUPBiCG:  Solving for Ux, Initial residual = 1.46141e-07, Final residual = 1.46141e-07, No Iterations 0
DILUPBiCG:  Solving for Uy, Initial residual = 1.41528e-07, Final residual = 1.41528e-07, No Iterations 0
DILUPBiCG:  Solving for Uz, Initial residual = 2.87044e-07, Final residual = 2.87044e-07, No Iterations 0
DICPCG:  Solving for p, Initial residual = 0.001003, Final residual = 9.84441e-05, No Iterations 12
DICPCG:  Solving for p, Initial residual = 0.000232219, Final residual = 2.09819e-05, No Iterations 22
DICPCG:  Solving for p, Initial residual = 5.36296e-05, Final residual = 9.91048e-06, No Iterations 56
time step continuity errors : sum local = 0.000101377, global = -7.68675e-06, cumulative = -0.00180646
DILUPBiCG:  Solving for epsilon, Initial residual = 0.000693454, Final residual = 3.11631e-07, No Iterations 3
DILUPBiCG:  Solving for k, Initial residual = 0.000800487, Final residual = 3.68205e-07, No Iterations 3
ExecutionTime = 2621.26 s  ClockTime = 2710 s

Time = 1115

DILUPBiCG:  Solving for Ux, Initial residual = 1.45639e-07, Final residual = 1.45639e-07, No Iterations 0
DILUPBiCG:  Solving for Uy, Initial residual = 1.41544e-07, Final residual = 1.41544e-07, No Iterations 0
DILUPBiCG:  Solving for Uz, Initial residual = 2.86006e-07, Final residual = 2.86006e-07, No Iterations 0
DICPCG:  Solving for p, Initial residual = 0.00100223, Final residual = 9.78358e-05, No Iterations 12
DICPCG:  Solving for p, Initial residual = 0.000231343, Final residual = 2.2857e-05, No Iterations 21
DICPCG:  Solving for p, Initial residual = 5.43579e-05, Final residual = 9.88996e-06, No Iterations 16
time step continuity errors : sum local = 0.00010121, global = -1.49305e-05, cumulative = -0.00182139
DILUPBiCG:  Solving for epsilon, Initial residual = 0.000692387, Final residual = 3.08619e-07, No Iterations 3
bounding epsilon, min: -0.000203113 max: 16263.1 average: 54.6496
DILUPBiCG:  Solving for k, Initial residual = 0.000799108, Final residual = 3.66882e-07, No Iterations 3
ExecutionTime = 2622.75 s  ClockTime = 2712 s

Time = 1116

DILUPBiCG:  Solving for Ux, Initial residual = 1.45132e-07, Final residual = 1.45132e-07, No Iterations 0
DILUPBiCG:  Solving for Uy, Initial residual = 1.41563e-07, Final residual = 1.41563e-07, No Iterations 0
DILUPBiCG:  Solving for Uz, Initial residual = 2.84953e-07, Final residual = 2.84953e-07, No Iterations 0
DICPCG:  Solving for p, Initial residual = 0.00100126, Final residual = 9.87262e-05, No Iterations 12
DICPCG:  Solving for p, Initial residual = 0.000231452, Final residual = 2.24483e-05, No Iterations 22
DICPCG:  Solving for p, Initial residual = 5.45777e-05, Final residual = 9.8426e-06, No Iterations 78
time step continuity errors : sum local = 0.000100771, global = -1.01879e-05, cumulative = -0.00183158
DILUPBiCG:  Solving for epsilon, Initial residual = 0.000691377, Final residual = 3.0663e-07, No Iterations 3
bounding epsilon, min: -0.00223892 max: 16263.1 average: 54.6442
DILUPBiCG:  Solving for k, Initial residual = 0.000797746, Final residual = 3.65587e-07, No Iterations 3
ExecutionTime = 2624.78 s  ClockTime = 2714 s

Time = 1117

DILUPBiCG:  Solving for Ux, Initial residual = 1.44648e-07, Final residual = 1.44648e-07, No Iterations 0
DILUPBiCG:  Solving for Uy, Initial residual = 1.41582e-07, Final residual = 1.41582e-07, No Iterations 0
DILUPBiCG:  Solving for Uz, Initial residual = 2.83925e-07, Final residual = 2.83925e-07, No Iterations 0
DICPCG:  Solving for p, Initial residual = 0.00100244, Final residual = 9.87023e-05, No Iterations 12
DICPCG:  Solving for p, Initial residual = 0.000231388, Final residual = 2.21058e-05, No Iterations 22
DICPCG:  Solving for p, Initial residual = 5.43626e-05, Final residual = 9.78182e-06, No Iterations 79
time step continuity errors : sum local = 0.000100203, global = -1.16469e-05, cumulative = -0.00184323
DILUPBiCG:  Solving for epsilon, Initial residual = 0.000690384, Final residual = 3.06023e-07, No Iterations 3
DILUPBiCG:  Solving for k, Initial residual = 0.000796395, Final residual = 3.64511e-07, No Iterations 3
ExecutionTime = 2626.82 s  ClockTime = 2716 s

Time = 1118

DILUPBiCG:  Solving for Ux, Initial residual = 1.44171e-07, Final residual = 1.44171e-07, No Iterations 0
DILUPBiCG:  Solving for Uy, Initial residual = 1.416e-07, Final residual = 1.416e-07, No Iterations 0
DILUPBiCG:  Solving for Uz, Initial residual = 2.82895e-07, Final residual = 2.82895e-07, No Iterations 0
DICPCG:  Solving for p, Initial residual = 0.00100036, Final residual = 9.72683e-05, No Iterations 12
DICPCG:  Solving for p, Initial residual = 0.000230096, Final residual = 2.14477e-05, No Iterations 22
DICPCG:  Solving for p, Initial residual = 5.37606e-05, Final residual = 9.47317e-06, No Iterations 44
time step continuity errors : sum local = 9.70952e-05, global = -1.29096e-05, cumulative = -0.00185614
DILUPBiCG:  Solving for epsilon, Initial residual = 0.000689386, Final residual = 3.05794e-07, No Iterations 3
DILUPBiCG:  Solving for k, Initial residual = 0.000795077, Final residual = 3.63586e-07, No Iterations 3
ExecutionTime = 2628.56 s  ClockTime = 2718 s

Time = 1119

DILUPBiCG:  Solving for Ux, Initial residual = 1.43714e-07, Final residual = 1.43714e-07, No Iterations 0
DILUPBiCG:  Solving for Uy, Initial residual = 1.41612e-07, Final residual = 1.41612e-07, No Iterations 0
DILUPBiCG:  Solving for Uz, Initial residual = 2.8187e-07, Final residual = 2.8187e-07, No Iterations 0
DICPCG:  Solving for p, Initial residual = 0.000996958, Final residual = 9.95674e-05, No Iterations 11
DICPCG:  Solving for p, Initial residual = 0.000229972, Final residual = 2.00793e-05, No Iterations 26
DICPCG:  Solving for p, Initial residual = 5.27378e-05, Final residual = 9.77479e-06, No Iterations 60
time step continuity errors : sum local = 0.000100244, global = -1.51585e-05, cumulative = -0.00187129
DILUPBiCG:  Solving for epsilon, Initial residual = 0.000688387, Final residual = 3.06155e-07, No Iterations 3
bounding epsilon, min: -0.00183233 max: 16263.1 average: 54.6279
DILUPBiCG:  Solving for k, Initial residual = 0.000793769, Final residual = 3.62751e-07, No Iterations 3
ExecutionTime = 2630.47 s  ClockTime = 2720 s


SIMPLE solution converged in 1119 iterations

End

Finalising parallel run
