/*---------------------------------------------------------------------------*\
  =========                 |
  \\      /  F ield         | OpenFOAM: The Open Source CFD Toolbox
   \\    /   O peration     | Website:  https://openfoam.org
    \\  /    A nd           | Version:  6
     \\/     M anipulation  |
\*---------------------------------------------------------------------------*/
Build  : 6
Exec   : bouSimpleFoam -parallel
Date   : Aug 06 2020
Time   : 17:33:42
Host   : "emps-ugcs2"
PID    : 709
I/O    : uncollated
Case   : /home/links/jjw230/Optimisation_second_draft/Case1
nProcs : 4
Slaves : 
3
(
"emps-ugcs2.710"
"emps-ugcs2.711"
"emps-ugcs2.712"
)

Pstream initialized with:
    floatTransfer      : 0
    nProcsSimpleSum    : 0
    commsType          : nonBlocking
    polling iterations : 0
sigFpe : Enabling floating point exception trapping (FOAM_SIGFPE).
fileModificationChecking : Monitoring run-time modified files using timeStampMaster (fileModificationSkew 10)
allowSystemOperations : Allowing user-supplied system call operations

// * * * * * * * * * * * * * * * * * * * * * * * * * * * * * * * * * * * * * //
Create time

Create mesh for time = 0


SIMPLE: Convergence criteria found
        p: tolerance 0.001
        U: tolerance 0.001
        "(k|epsilon)": tolerance 0.001
        theta: tolerance 0.001

Reading field p

Reading field U

Reading field theta

Reading/calculating face flux field phi

Selecting incompressible transport model Newtonian
Selecting turbulence model type RAS
Selecting RAS turbulence model RNGkEpsilon
RAS
{
    RASModel        RNGkEpsilon;
    turbulence      on;
    printCoeffs     on;
    Cmu             0.0845;
    C1              1.42;
    C2              1.68;
    C3              0;
    sigmak          0.71942;
    sigmaEps        0.71942;
    eta0            4.38;
    beta            0.012;
}

No MRF models present

Creating finite volume options from "system/fvOptions"

Selecting finite volume options model type explicitPorositySource
    Source: source0
    - selecting cells using cellZone cz_solid_0
    - selected 2318 cell(s) with volume 0.00214548
Porosity region source0:
    selecting model: DarcyForchheimer
    creating porous zone: cz_solid_0
Selecting finite volume options model type explicitPorositySource
    Source: source1
    - selecting cells using cellZone cz_solid_1
    - selected 2452 cell(s) with volume 0.00214197
Porosity region source1:
    selecting model: DarcyForchheimer
    creating porous zone: cz_solid_1
Selecting finite volume options model type explicitPorositySource
    Source: source2
    - selecting cells using cellZone cz_solid_2
    - selected 2346 cell(s) with volume 0.00214587
Porosity region source2:
    selecting model: DarcyForchheimer
    creating porous zone: cz_solid_2
Selecting finite volume options model type explicitPorositySource
    Source: source3
    - selecting cells using cellZone cz_solid_3
    - selected 2089 cell(s) with volume 0.00214088
Porosity region source3:
    selecting model: DarcyForchheimer
    creating porous zone: cz_solid_3
Selecting finite volume options model type explicitPorositySource
    Source: source4
    - selecting cells using cellZone cz_solid_4
    - selected 2326 cell(s) with volume 0.0021449
Porosity region source4:
    selecting model: DarcyForchheimer
    creating porous zone: cz_solid_4
Selecting finite volume options model type explicitPorositySource
    Source: source5
    - selecting cells using cellZone cz_solid_5
    - selected 1880 cell(s) with volume 0.0021415
Porosity region source5:
    selecting model: DarcyForchheimer
    creating porous zone: cz_solid_5
Selecting finite volume options model type explicitPorositySource
    Source: source6
    - selecting cells using cellZone cz_solid_6
    - selected 2174 cell(s) with volume 0.00214489
Porosity region source6:
    selecting model: DarcyForchheimer
    creating porous zone: cz_solid_6
Selecting finite volume options model type explicitPorositySource
    Source: source7
    - selecting cells using cellZone cz_solid_7
    - selected 2094 cell(s) with volume 0.00214479
Porosity region source7:
    selecting model: DarcyForchheimer
    creating porous zone: cz_solid_7
Selecting finite volume options model type explicitPorositySource
    Source: source8
    - selecting cells using cellZone cz_solid_8
    - selected 1733 cell(s) with volume 0.00214313
Porosity region source8:
    selecting model: DarcyForchheimer
    creating porous zone: cz_solid_8
Selecting finite volume options model type explicitPorositySource
    Source: source9
    - selecting cells using cellZone cz_solid_9
    - selected 2083 cell(s) with volume 0.00214288
Porosity region source9:
    selecting model: DarcyForchheimer
    creating porous zone: cz_solid_9
Selecting finite volume options model type explicitPorositySource
    Source: source10
    - selecting cells using cellZone cz_solid_10
    - selected 2281 cell(s) with volume 0.00214537
Porosity region source10:
    selecting model: DarcyForchheimer
    creating porous zone: cz_solid_10
Selecting finite volume options model type explicitPorositySource
    Source: source11
    - selecting cells using cellZone cz_solid_11
    - selected 2356 cell(s) with volume 0.00214364
Porosity region source11:
    selecting model: DarcyForchheimer
    creating porous zone: cz_solid_11
Selecting finite volume options model type explicitPorositySource
    Source: source12
    - selecting cells using cellZone cz_solid_12
    - selected 2358 cell(s) with volume 0.00214458
Porosity region source12:
    selecting model: DarcyForchheimer
    creating porous zone: cz_solid_12
Selecting finite volume options model type explicitPorositySource
    Source: source13
    - selecting cells using cellZone cz_solid_13
    - selected 2004 cell(s) with volume 0.00214292
Porosity region source13:
    selecting model: DarcyForchheimer
    creating porous zone: cz_solid_13
Selecting finite volume options model type explicitPorositySource
    Source: source14
    - selecting cells using cellZone cz_solid_14
    - selected 1880 cell(s) with volume 0.00214448
Porosity region source14:
    selecting model: DarcyForchheimer
    creating porous zone: cz_solid_14
Selecting finite volume options model type explicitPorositySource
    Source: source15
    - selecting cells using cellZone cz_solid_15
    - selected 2114 cell(s) with volume 0.00214215
Porosity region source15:
    selecting model: DarcyForchheimer
    creating porous zone: cz_solid_15
Selecting finite volume options model type explicitPorositySource
    Source: source16
    - selecting cells using cellZone cz_solid_16
    - selected 2244 cell(s) with volume 0.00214172
Porosity region source16:
    selecting model: DarcyForchheimer
    creating porous zone: cz_solid_16
Selecting finite volume options model type explicitPorositySource
    Source: source17
    - selecting cells using cellZone cz_solid_17
    - selected 2319 cell(s) with volume 0.00214534
Porosity region source17:
    selecting model: DarcyForchheimer
    creating porous zone: cz_solid_17
Selecting finite volume options model type explicitPorositySource
    Source: source18
    - selecting cells using cellZone cz_solid_18
    - selected 2361 cell(s) with volume 0.00214499
Porosity region source18:
    selecting model: DarcyForchheimer
    creating porous zone: cz_solid_18
Selecting finite volume options model type explicitPorositySource
    Source: source19
    - selecting cells using cellZone cz_solid_19
    - selected 1815 cell(s) with volume 0.0021393
Porosity region source19:
    selecting model: DarcyForchheimer
    creating porous zone: cz_solid_19
Selecting finite volume options model type explicitPorositySource
    Source: source20
    - selecting cells using cellZone cz_solid_20
    - selected 2328 cell(s) with volume 0.00214466
Porosity region source20:
    selecting model: DarcyForchheimer
    creating porous zone: cz_solid_20
Selecting finite volume options model type explicitPorositySource
    Source: source21
    - selecting cells using cellZone cz_solid_21
    - selected 2444 cell(s) with volume 0.00214206
Porosity region source21:
    selecting model: DarcyForchheimer
    creating porous zone: cz_solid_21
Selecting finite volume options model type explicitPorositySource
    Source: source22
    - selecting cells using cellZone cz_solid_22
    - selected 2328 cell(s) with volume 0.00214567
Porosity region source22:
    selecting model: DarcyForchheimer
    creating porous zone: cz_solid_22
Selecting finite volume options model type explicitPorositySource
    Source: source23
    - selecting cells using cellZone cz_solid_23
    - selected 2088 cell(s) with volume 0.00214077
Porosity region source23:
    selecting model: DarcyForchheimer
    creating porous zone: cz_solid_23
Selecting finite volume options model type explicitPorositySource
    Source: source24
    - selecting cells using cellZone cz_solid_24
    - selected 2332 cell(s) with volume 0.00214457
Porosity region source24:
    selecting model: DarcyForchheimer
    creating porous zone: cz_solid_24
Selecting finite volume options model type explicitPorositySource
    Source: source25
    - selecting cells using cellZone cz_solid_25
    - selected 1892 cell(s) with volume 0.0021409
Porosity region source25:
    selecting model: DarcyForchheimer
    creating porous zone: cz_solid_25
Selecting finite volume options model type explicitPorositySource
    Source: source26
    - selecting cells using cellZone cz_solid_26
    - selected 2164 cell(s) with volume 0.00214457
Porosity region source26:
    selecting model: DarcyForchheimer
    creating porous zone: cz_solid_26
Selecting finite volume options model type explicitPorositySource
    Source: source27
    - selecting cells using cellZone cz_solid_27
    - selected 2090 cell(s) with volume 0.00214469
Porosity region source27:
    selecting model: DarcyForchheimer
    creating porous zone: cz_solid_27
Selecting finite volume options model type explicitPorositySource
    Source: source28
    - selecting cells using cellZone cz_solid_28
    - selected 1738 cell(s) with volume 0.00214304
Porosity region source28:
    selecting model: DarcyForchheimer
    creating porous zone: cz_solid_28
Selecting finite volume options model type explicitPorositySource
    Source: source29
    - selecting cells using cellZone cz_solid_29
    - selected 2074 cell(s) with volume 0.00214269
Porosity region source29:
    selecting model: DarcyForchheimer
    creating porous zone: cz_solid_29
Selecting finite volume options model type explicitPorositySource
    Source: source30
    - selecting cells using cellZone cz_solid_30
    - selected 2292 cell(s) with volume 0.00214514
Porosity region source30:
    selecting model: DarcyForchheimer
    creating porous zone: cz_solid_30
Selecting finite volume options model type explicitPorositySource
    Source: source31
    - selecting cells using cellZone cz_solid_31
    - selected 2368 cell(s) with volume 0.00214361
Porosity region source31:
    selecting model: DarcyForchheimer
    creating porous zone: cz_solid_31
Selecting finite volume options model type explicitPorositySource
    Source: source32
    - selecting cells using cellZone cz_solid_32
    - selected 2348 cell(s) with volume 0.0021446
Porosity region source32:
    selecting model: DarcyForchheimer
    creating porous zone: cz_solid_32
Selecting finite volume options model type explicitPorositySource
    Source: source33
    - selecting cells using cellZone cz_solid_33
    - selected 1996 cell(s) with volume 0.00214276
Porosity region source33:
    selecting model: DarcyForchheimer
    creating porous zone: cz_solid_33
Selecting finite volume options model type explicitPorositySource
    Source: source34
    - selecting cells using cellZone cz_solid_34
    - selected 1892 cell(s) with volume 0.00214427
Porosity region source34:
    selecting model: DarcyForchheimer
    creating porous zone: cz_solid_34
Selecting finite volume options model type explicitPorositySource
    Source: source35
    - selecting cells using cellZone cz_solid_35
    - selected 2106 cell(s) with volume 0.00214169
Porosity region source35:
    selecting model: DarcyForchheimer
    creating porous zone: cz_solid_35
Selecting finite volume options model type explicitPorositySource
    Source: source36
    - selecting cells using cellZone cz_solid_36
    - selected 2256 cell(s) with volume 0.00214204
Porosity region source36:
    selecting model: DarcyForchheimer
    creating porous zone: cz_solid_36
Selecting finite volume options model type explicitPorositySource
    Source: source37
    - selecting cells using cellZone cz_solid_37
    - selected 2332 cell(s) with volume 0.00214475
Porosity region source37:
    selecting model: DarcyForchheimer
    creating porous zone: cz_solid_37
Selecting finite volume options model type explicitPorositySource
    Source: source38
    - selecting cells using cellZone cz_solid_38
    - selected 2346 cell(s) with volume 0.00214447
Porosity region source38:
    selecting model: DarcyForchheimer
    creating porous zone: cz_solid_38
Selecting finite volume options model type explicitPorositySource
    Source: source39
    - selecting cells using cellZone cz_solid_39
    - selected 1814 cell(s) with volume 0.00213933
Porosity region source39:
    selecting model: DarcyForchheimer
    creating porous zone: cz_solid_39
Selecting finite volume options model type explicitPorositySource
    Source: source40
    - selecting cells using cellZone cz_solid_40
    - selected 2388 cell(s) with volume 0.0021454
Porosity region source40:
    selecting model: DarcyForchheimer
    creating porous zone: cz_solid_40
Selecting finite volume options model type explicitPorositySource
    Source: source41
    - selecting cells using cellZone cz_solid_41
    - selected 2508 cell(s) with volume 0.00214191
Porosity region source41:
    selecting model: DarcyForchheimer
    creating porous zone: cz_solid_41
Selecting finite volume options model type explicitPorositySource
    Source: source42
    - selecting cells using cellZone cz_solid_42
    - selected 2409 cell(s) with volume 0.00214563
Porosity region source42:
    selecting model: DarcyForchheimer
    creating porous zone: cz_solid_42
Selecting finite volume options model type explicitPorositySource
    Source: source43
    - selecting cells using cellZone cz_solid_43
    - selected 2159 cell(s) with volume 0.00214078
Porosity region source43:
    selecting model: DarcyForchheimer
    creating porous zone: cz_solid_43
Selecting finite volume options model type explicitPorositySource
    Source: source44
    - selecting cells using cellZone cz_solid_44
    - selected 2396 cell(s) with volume 0.0021449
Porosity region source44:
    selecting model: DarcyForchheimer
    creating porous zone: cz_solid_44
Selecting finite volume options model type explicitPorositySource
    Source: source45
    - selecting cells using cellZone cz_solid_45
    - selected 1964 cell(s) with volume 0.00214168
Porosity region source45:
    selecting model: DarcyForchheimer
    creating porous zone: cz_solid_45
Selecting finite volume options model type explicitPorositySource
    Source: source46
    - selecting cells using cellZone cz_solid_46
    - selected 2244 cell(s) with volume 0.00214478
Porosity region source46:
    selecting model: DarcyForchheimer
    creating porous zone: cz_solid_46
Selecting finite volume options model type explicitPorositySource
    Source: source47
    - selecting cells using cellZone cz_solid_47
    - selected 2171 cell(s) with volume 0.00214459
Porosity region source47:
    selecting model: DarcyForchheimer
    creating porous zone: cz_solid_47
Selecting finite volume options model type explicitPorositySource
    Source: source48
    - selecting cells using cellZone cz_solid_48
    - selected 1810 cell(s) with volume 0.00214307
Porosity region source48:
    selecting model: DarcyForchheimer
    creating porous zone: cz_solid_48
Selecting finite volume options model type explicitPorositySource
    Source: source49
    - selecting cells using cellZone cz_solid_49
    - selected 2139 cell(s) with volume 0.00214291
Porosity region source49:
    selecting model: DarcyForchheimer
    creating porous zone: cz_solid_49
Selecting finite volume options model type explicitPorositySource
    Source: source50
    - selecting cells using cellZone cz_solid_50
    - selected 2365 cell(s) with volume 0.0021451
Porosity region source50:
    selecting model: DarcyForchheimer
    creating porous zone: cz_solid_50
Selecting finite volume options model type explicitPorositySource
    Source: source51
    - selecting cells using cellZone cz_solid_51
    - selected 2433 cell(s) with volume 0.00214358
Porosity region source51:
    selecting model: DarcyForchheimer
    creating porous zone: cz_solid_51
Selecting finite volume options model type explicitPorositySource
    Source: source52
    - selecting cells using cellZone cz_solid_52
    - selected 2414 cell(s) with volume 0.00214446
Porosity region source52:
    selecting model: DarcyForchheimer
    creating porous zone: cz_solid_52
Selecting finite volume options model type explicitPorositySource
    Source: source53
    - selecting cells using cellZone cz_solid_53
    - selected 2060 cell(s) with volume 0.00214296
Porosity region source53:
    selecting model: DarcyForchheimer
    creating porous zone: cz_solid_53
Selecting finite volume options model type explicitPorositySource
    Source: source54
    - selecting cells using cellZone cz_solid_54
    - selected 1964 cell(s) with volume 0.00214434
Porosity region source54:
    selecting model: DarcyForchheimer
    creating porous zone: cz_solid_54
Selecting finite volume options model type explicitPorositySource
    Source: source55
    - selecting cells using cellZone cz_solid_55
    - selected 2177 cell(s) with volume 0.00214199
Porosity region source55:
    selecting model: DarcyForchheimer
    creating porous zone: cz_solid_55
Selecting finite volume options model type explicitPorositySource
    Source: source56
    - selecting cells using cellZone cz_solid_56
    - selected 2321 cell(s) with volume 0.00214179
Porosity region source56:
    selecting model: DarcyForchheimer
    creating porous zone: cz_solid_56
Selecting finite volume options model type explicitPorositySource
    Source: source57
    - selecting cells using cellZone cz_solid_57
    - selected 2389 cell(s) with volume 0.00214539
Porosity region source57:
    selecting model: DarcyForchheimer
    creating porous zone: cz_solid_57
Selecting finite volume options model type explicitPorositySource
    Source: source58
    - selecting cells using cellZone cz_solid_58
    - selected 2417 cell(s) with volume 0.00214506
Porosity region source58:
    selecting model: DarcyForchheimer
    creating porous zone: cz_solid_58
Selecting finite volume options model type explicitPorositySource
    Source: source59
    - selecting cells using cellZone cz_solid_59
    - selected 1885 cell(s) with volume 0.00213935
Porosity region source59:
    selecting model: DarcyForchheimer
    creating porous zone: cz_solid_59
Selecting finite volume options model type explicitPorositySource
    Source: source60
    - selecting cells using cellZone cz_solid_60
    - selected 2374 cell(s) with volume 0.00214538
Porosity region source60:
    selecting model: DarcyForchheimer
    creating porous zone: cz_solid_60
Selecting finite volume options model type explicitPorositySource
    Source: source61
    - selecting cells using cellZone cz_solid_61
    - selected 2473 cell(s) with volume 0.00214203
Porosity region source61:
    selecting model: DarcyForchheimer
    creating porous zone: cz_solid_61
Selecting finite volume options model type explicitPorositySource
    Source: source62
    - selecting cells using cellZone cz_solid_62
    - selected 2346 cell(s) with volume 0.00214571
Porosity region source62:
    selecting model: DarcyForchheimer
    creating porous zone: cz_solid_62
Selecting finite volume options model type explicitPorositySource
    Source: source63
    - selecting cells using cellZone cz_solid_63
    - selected 2096 cell(s) with volume 0.00214062
Porosity region source63:
    selecting model: DarcyForchheimer
    creating porous zone: cz_solid_63
Selecting finite volume options model type explicitPorositySource
    Source: source64
    - selecting cells using cellZone cz_solid_64
    - selected 2326 cell(s) with volume 0.00214528
Porosity region source64:
    selecting model: DarcyForchheimer
    creating porous zone: cz_solid_64
Selecting finite volume options model type explicitPorositySource
    Source: source65
    - selecting cells using cellZone cz_solid_65
    - selected 1883 cell(s) with volume 0.00214148
Porosity region source65:
    selecting model: DarcyForchheimer
    creating porous zone: cz_solid_65
Selecting finite volume options model type explicitPorositySource
    Source: source66
    - selecting cells using cellZone cz_solid_66
    - selected 2198 cell(s) with volume 0.00214426
Porosity region source66:
    selecting model: DarcyForchheimer
    creating porous zone: cz_solid_66
Selecting finite volume options model type explicitPorositySource
    Source: source67
    - selecting cells using cellZone cz_solid_67
    - selected 2118 cell(s) with volume 0.00214478
Porosity region source67:
    selecting model: DarcyForchheimer
    creating porous zone: cz_solid_67
Selecting finite volume options model type explicitPorositySource
    Source: source68
    - selecting cells using cellZone cz_solid_68
    - selected 1727 cell(s) with volume 0.00214316
Porosity region source68:
    selecting model: DarcyForchheimer
    creating porous zone: cz_solid_68
Selecting finite volume options model type explicitPorositySource
    Source: source69
    - selecting cells using cellZone cz_solid_69
    - selected 2097 cell(s) with volume 0.00214276
Porosity region source69:
    selecting model: DarcyForchheimer
    creating porous zone: cz_solid_69
Selecting finite volume options model type explicitPorositySource
    Source: source70
    - selecting cells using cellZone cz_solid_70
    - selected 2309 cell(s) with volume 0.00214504
Porosity region source70:
    selecting model: DarcyForchheimer
    creating porous zone: cz_solid_70
Selecting finite volume options model type explicitPorositySource
    Source: source71
    - selecting cells using cellZone cz_solid_71
    - selected 2377 cell(s) with volume 0.0021436
Porosity region source71:
    selecting model: DarcyForchheimer
    creating porous zone: cz_solid_71
Selecting finite volume options model type explicitPorositySource
    Source: source72
    - selecting cells using cellZone cz_solid_72
    - selected 2393 cell(s) with volume 0.00214456
Porosity region source72:
    selecting model: DarcyForchheimer
    creating porous zone: cz_solid_72
Selecting finite volume options model type explicitPorositySource
    Source: source73
    - selecting cells using cellZone cz_solid_73
    - selected 1997 cell(s) with volume 0.00214283
Porosity region source73:
    selecting model: DarcyForchheimer
    creating porous zone: cz_solid_73
Selecting finite volume options model type explicitPorositySource
    Source: source74
    - selecting cells using cellZone cz_solid_74
    - selected 1891 cell(s) with volume 0.00214432
Porosity region source74:
    selecting model: DarcyForchheimer
    creating porous zone: cz_solid_74
Selecting finite volume options model type explicitPorositySource
    Source: source75
    - selecting cells using cellZone cz_solid_75
    - selected 2119 cell(s) with volume 0.00214216
Porosity region source75:
    selecting model: DarcyForchheimer
    creating porous zone: cz_solid_75
Selecting finite volume options model type explicitPorositySource
    Source: source76
    - selecting cells using cellZone cz_solid_76
    - selected 2244 cell(s) with volume 0.00214193
Porosity region source76:
    selecting model: DarcyForchheimer
    creating porous zone: cz_solid_76
Selecting finite volume options model type explicitPorositySource
    Source: source77
    - selecting cells using cellZone cz_solid_77
    - selected 2361 cell(s) with volume 0.00214515
Porosity region source77:
    selecting model: DarcyForchheimer
    creating porous zone: cz_solid_77
Selecting finite volume options model type explicitPorositySource
    Source: source78
    - selecting cells using cellZone cz_solid_78
    - selected 2382 cell(s) with volume 0.0021452
Porosity region source78:
    selecting model: DarcyForchheimer
    creating porous zone: cz_solid_78
Selecting finite volume options model type explicitPorositySource
    Source: source79
    - selecting cells using cellZone cz_solid_79
    - selected 1803 cell(s) with volume 0.00213933
Porosity region source79:
    selecting model: DarcyForchheimer
    creating porous zone: cz_solid_79
Selecting finite volume options model type explicitPorositySource
    Source: source80
    - selecting cells using cellZone cz_solid_80
    - selected 2374 cell(s) with volume 0.00214579
Porosity region source80:
    selecting model: DarcyForchheimer
    creating porous zone: cz_solid_80
Selecting finite volume options model type explicitPorositySource
    Source: source81
    - selecting cells using cellZone cz_solid_81
    - selected 2467 cell(s) with volume 0.00214285
Porosity region source81:
    selecting model: DarcyForchheimer
    creating porous zone: cz_solid_81
Selecting finite volume options model type explicitPorositySource
    Source: source82
    - selecting cells using cellZone cz_solid_82
    - selected 2343 cell(s) with volume 0.00214629
Porosity region source82:
    selecting model: DarcyForchheimer
    creating porous zone: cz_solid_82
Selecting finite volume options model type explicitPorositySource
    Source: source83
    - selecting cells using cellZone cz_solid_83
    - selected 2093 cell(s) with volume 0.00214175
Porosity region source83:
    selecting model: DarcyForchheimer
    creating porous zone: cz_solid_83
Selecting finite volume options model type explicitPorositySource
    Source: source84
    - selecting cells using cellZone cz_solid_84
    - selected 2326 cell(s) with volume 0.00214534
Porosity region source84:
    selecting model: DarcyForchheimer
    creating porous zone: cz_solid_84
Selecting finite volume options model type explicitPorositySource
    Source: source85
    - selecting cells using cellZone cz_solid_85
    - selected 1877 cell(s) with volume 0.00214242
Porosity region source85:
    selecting model: DarcyForchheimer
    creating porous zone: cz_solid_85
Selecting finite volume options model type explicitPorositySource
    Source: source86
    - selecting cells using cellZone cz_solid_86
    - selected 2189 cell(s) with volume 0.00214527
Porosity region source86:
    selecting model: DarcyForchheimer
    creating porous zone: cz_solid_86
Selecting finite volume options model type explicitPorositySource
    Source: source87
    - selecting cells using cellZone cz_solid_87
    - selected 2109 cell(s) with volume 0.00214616
Porosity region source87:
    selecting model: DarcyForchheimer
    creating porous zone: cz_solid_87
Selecting finite volume options model type explicitPorositySource
    Source: source88
    - selecting cells using cellZone cz_solid_88
    - selected 1718 cell(s) with volume 0.00214461
Porosity region source88:
    selecting model: DarcyForchheimer
    creating porous zone: cz_solid_88
Selecting finite volume options model type explicitPorositySource
    Source: source89
    - selecting cells using cellZone cz_solid_89
    - selected 2091 cell(s) with volume 0.00214379
Porosity region source89:
    selecting model: DarcyForchheimer
    creating porous zone: cz_solid_89
Selecting finite volume options model type explicitPorositySource
    Source: source90
    - selecting cells using cellZone cz_solid_90
    - selected 2303 cell(s) with volume 0.0021458
Porosity region source90:
    selecting model: DarcyForchheimer
    creating porous zone: cz_solid_90
Selecting finite volume options model type explicitPorositySource
    Source: source91
    - selecting cells using cellZone cz_solid_91
    - selected 2374 cell(s) with volume 0.00214441
Porosity region source91:
    selecting model: DarcyForchheimer
    creating porous zone: cz_solid_91
Selecting finite volume options model type explicitPorositySource
    Source: source92
    - selecting cells using cellZone cz_solid_92
    - selected 2393 cell(s) with volume 0.00214483
Porosity region source92:
    selecting model: DarcyForchheimer
    creating porous zone: cz_solid_92
Selecting finite volume options model type explicitPorositySource
    Source: source93
    - selecting cells using cellZone cz_solid_93
    - selected 1991 cell(s) with volume 0.00214366
Porosity region source93:
    selecting model: DarcyForchheimer
    creating porous zone: cz_solid_93
Selecting finite volume options model type explicitPorositySource
    Source: source94
    - selecting cells using cellZone cz_solid_94
    - selected 1882 cell(s) with volume 0.00214593
Porosity region source94:
    selecting model: DarcyForchheimer
    creating porous zone: cz_solid_94
Selecting finite volume options model type explicitPorositySource
    Source: source95
    - selecting cells using cellZone cz_solid_95
    - selected 2119 cell(s) with volume 0.00214272
Porosity region source95:
    selecting model: DarcyForchheimer
    creating porous zone: cz_solid_95
Selecting finite volume options model type explicitPorositySource
    Source: source96
    - selecting cells using cellZone cz_solid_96
    - selected 2241 cell(s) with volume 0.00214275
Porosity region source96:
    selecting model: DarcyForchheimer
    creating porous zone: cz_solid_96
Selecting finite volume options model type explicitPorositySource
    Source: source97
    - selecting cells using cellZone cz_solid_97
    - selected 2361 cell(s) with volume 0.00214564
Porosity region source97:
    selecting model: DarcyForchheimer
    creating porous zone: cz_solid_97
Selecting finite volume options model type explicitPorositySource
    Source: source98
    - selecting cells using cellZone cz_solid_98
    - selected 2376 cell(s) with volume 0.00214611
Porosity region source98:
    selecting model: DarcyForchheimer
    creating porous zone: cz_solid_98
Selecting finite volume options model type explicitPorositySource
    Source: source99
    - selecting cells using cellZone cz_solid_99
    - selected 1797 cell(s) with volume 0.00214029
Porosity region source99:
    selecting model: DarcyForchheimer
    creating porous zone: cz_solid_99

Starting time loop

forces porousforces:
--> FOAM Warning : 
    From function Foam::labelHashSet Foam::polyBoundaryMesh::patchSet(const Foam::UList<Foam::wordRe>&, bool, bool) const
    in file meshes/polyMesh/polyBoundaryMesh/polyBoundaryMesh.C at line 798
    Cannot find any patch or group names matching solid_to_fluid
    Including porosity effects


surfaceFieldValue massFlowAtFilter_0:
    total faces  = 1950
    total area   = 0.101732




surfaceFieldValue massFlowAtFilter_1:
    total faces  = 1802
    total area   = 0.101671




surfaceFieldValue massFlowAtFilter_2:
    total faces  = 1953
    total area   = 0.101722




surfaceFieldValue massFlowAtFilter_3:
    total faces  = 1690
    total area   = 0.101675




surfaceFieldValue massFlowAtFilter_4:
    total faces  = 1822
    total area   = 0.101819




surfaceFieldValue massFlowAtFilter_5:
    total faces  = 1697
    total area   = 0.10179




surfaceFieldValue massFlowAtFilter_6:
    total faces  = 1814
    total area   = 0.101926




surfaceFieldValue massFlowAtFilter_7:
    total faces  = 1867
    total area   = 0.101734




surfaceFieldValue massFlowAtFilter_8:
    total faces  = 1711
    total area   = 0.1017




surfaceFieldValue massFlowAtFilter_9:
    total faces  = 1672
    total area   = 0.101726




surfaceFieldValue massFlowAtFilter_10:
    total faces  = 1868
    total area   = 0.10175




surfaceFieldValue massFlowAtFilter_11:
    total faces  = 1795
    total area   = 0.101721




surfaceFieldValue massFlowAtFilter_12:
    total faces  = 1844
    total area   = 0.101731




surfaceFieldValue massFlowAtFilter_13:
    total faces  = 1658
    total area   = 0.101731




surfaceFieldValue massFlowAtFilter_14:
    total faces  = 1794
    total area   = 0.101729




surfaceFieldValue massFlowAtFilter_15:
    total faces  = 1777
    total area   = 0.101748




surfaceFieldValue massFlowAtFilter_16:
    total faces  = 1747
    total area   = 0.101683




surfaceFieldValue massFlowAtFilter_17:
    total faces  = 1833
    total area   = 0.101843




surfaceFieldValue massFlowAtFilter_18:
    total faces  = 1834
    total area   = 0.101813




surfaceFieldValue massFlowAtFilter_19:
    total faces  = 1612
    total area   = 0.101648




surfaceFieldValue massFlowAtFilter_20:
    total faces  = 1932
    total area   = 0.101591




surfaceFieldValue massFlowAtFilter_21:
    total faces  = 1782
    total area   = 0.101632




surfaceFieldValue massFlowAtFilter_22:
    total faces  = 1932
    total area   = 0.101632




surfaceFieldValue massFlowAtFilter_23:
    total faces  = 1676
    total area   = 0.101634




surfaceFieldValue massFlowAtFilter_24:
    total faces  = 1806
    total area   = 0.10165




surfaceFieldValue massFlowAtFilter_25:
    total faces  = 1686
    total area   = 0.101608




surfaceFieldValue massFlowAtFilter_26:
    total faces  = 1798
    total area   = 0.101835




surfaceFieldValue massFlowAtFilter_27:
    total faces  = 1852
    total area   = 0.101647




surfaceFieldValue massFlowAtFilter_28:
    total faces  = 1698
    total area   = 0.101668




surfaceFieldValue massFlowAtFilter_29:
    total faces  = 1652
    total area   = 0.101687




surfaceFieldValue massFlowAtFilter_30:
    total faces  = 1858
    total area   = 0.10173




surfaceFieldValue massFlowAtFilter_31:
    total faces  = 1784
    total area   = 0.101691




surfaceFieldValue massFlowAtFilter_32:
    total faces  = 1822
    total area   = 0.101711




surfaceFieldValue massFlowAtFilter_33:
    total faces  = 1638
    total area   = 0.101687




surfaceFieldValue massFlowAtFilter_34:
    total faces  = 1784
    total area   = 0.101676




surfaceFieldValue massFlowAtFilter_35:
    total faces  = 1758
    total area   = 0.101617




surfaceFieldValue massFlowAtFilter_36:
    total faces  = 1736
    total area   = 0.101658




surfaceFieldValue massFlowAtFilter_37:
    total faces  = 1818
    total area   = 0.101627




surfaceFieldValue massFlowAtFilter_38:
    total faces  = 1812
    total area   = 0.101634




surfaceFieldValue massFlowAtFilter_39:
    total faces  = 1598
    total area   = 0.101586




surfaceFieldValue massFlowAtFilter_40:
    total faces  = 1980
    total area   = 0.101737




surfaceFieldValue massFlowAtFilter_41:
    total faces  = 1826
    total area   = 0.101675




surfaceFieldValue massFlowAtFilter_42:
    total faces  = 1980
    total area   = 0.101711




surfaceFieldValue massFlowAtFilter_43:
    total faces  = 1720
    total area   = 0.101668




surfaceFieldValue massFlowAtFilter_44:
    total faces  = 1852
    total area   = 0.101822




surfaceFieldValue massFlowAtFilter_45:
    total faces  = 1733
    total area   = 0.101812




surfaceFieldValue massFlowAtFilter_46:
    total faces  = 1844
    total area   = 0.101915




surfaceFieldValue massFlowAtFilter_47:
    total faces  = 1900
    total area   = 0.101722




surfaceFieldValue massFlowAtFilter_48:
    total faces  = 1744
    total area   = 0.101694




surfaceFieldValue massFlowAtFilter_49:
    total faces  = 1696
    total area   = 0.101732




surfaceFieldValue massFlowAtFilter_50:
    total faces  = 1904
    total area   = 0.101748




surfaceFieldValue massFlowAtFilter_51:
    total faces  = 1828
    total area   = 0.101714




surfaceFieldValue massFlowAtFilter_52:
    total faces  = 1868
    total area   = 0.101736




surfaceFieldValue massFlowAtFilter_53:
    total faces  = 1682
    total area   = 0.101729




surfaceFieldValue massFlowAtFilter_54:
    total faces  = 1830
    total area   = 0.101729




surfaceFieldValue massFlowAtFilter_55:
    total faces  = 1804
    total area   = 0.101755




surfaceFieldValue massFlowAtFilter_56:
    total faces  = 1780
    total area   = 0.101678




surfaceFieldValue massFlowAtFilter_57:
    total faces  = 1863
    total area   = 0.101858




surfaceFieldValue massFlowAtFilter_58:
    total faces  = 1858
    total area   = 0.10182




surfaceFieldValue massFlowAtFilter_59:
    total faces  = 1642
    total area   = 0.101652




surfaceFieldValue massFlowAtFilter_60:
    total faces  = 1980
    total area   = 0.101736




surfaceFieldValue massFlowAtFilter_61:
    total faces  = 1826
    total area   = 0.101675




surfaceFieldValue massFlowAtFilter_62:
    total faces  = 1980
    total area   = 0.101692




surfaceFieldValue massFlowAtFilter_63:
    total faces  = 1714
    total area   = 0.101662




surfaceFieldValue massFlowAtFilter_64:
    total faces  = 1849
    total area   = 0.101803




surfaceFieldValue massFlowAtFilter_65:
    total faces  = 1718
    total area   = 0.101756




surfaceFieldValue massFlowAtFilter_66:
    total faces  = 1849
    total area   = 0.101825




surfaceFieldValue massFlowAtFilter_67:
    total faces  = 1910
    total area   = 0.101731




surfaceFieldValue massFlowAtFilter_68:
    total faces  = 1736
    total area   = 0.101705




surfaceFieldValue massFlowAtFilter_69:
    total faces  = 1693
    total area   = 0.101727




surfaceFieldValue massFlowAtFilter_70:
    total faces  = 1904
    total area   = 0.101734




surfaceFieldValue massFlowAtFilter_71:
    total faces  = 1828
    total area   = 0.101714




surfaceFieldValue massFlowAtFilter_72:
    total faces  = 1865
    total area   = 0.101725




surfaceFieldValue massFlowAtFilter_73:
    total faces  = 1673
    total area   = 0.10173




surfaceFieldValue massFlowAtFilter_74:
    total faces  = 1828
    total area   = 0.101717




surfaceFieldValue massFlowAtFilter_75:
    total faces  = 1805
    total area   = 0.101747




surfaceFieldValue massFlowAtFilter_76:
    total faces  = 1771
    total area   = 0.101672




surfaceFieldValue massFlowAtFilter_77:
    total faces  = 1863
    total area   = 0.101815




surfaceFieldValue massFlowAtFilter_78:
    total faces  = 1861
    total area   = 0.10181




surfaceFieldValue massFlowAtFilter_79:
    total faces  = 1630
    total area   = 0.10164




surfaceFieldValue massFlowAtFilter_80:
    total faces  = 1980
    total area   = 0.101647




surfaceFieldValue massFlowAtFilter_81:
    total faces  = 1832
    total area   = 0.10155




surfaceFieldValue massFlowAtFilter_82:
    total faces  = 1985
    total area   = 0.101612




surfaceFieldValue massFlowAtFilter_83:
    total faces  = 1719
    total area   = 0.101565




surfaceFieldValue massFlowAtFilter_84:
    total faces  = 1849
    total area   = 0.101646




surfaceFieldValue massFlowAtFilter_85:
    total faces  = 1724
    total area   = 0.101601




surfaceFieldValue massFlowAtFilter_86:
    total faces  = 1856
    total area   = 0.101634




surfaceFieldValue massFlowAtFilter_87:
    total faces  = 1917
    total area   = 0.101607




surfaceFieldValue massFlowAtFilter_88:
    total faces  = 1743
    total area   = 0.101573




surfaceFieldValue massFlowAtFilter_89:
    total faces  = 1699
    total area   = 0.101627




surfaceFieldValue massFlowAtFilter_90:
    total faces  = 1910
    total area   = 0.101652




surfaceFieldValue massFlowAtFilter_91:
    total faces  = 1833
    total area   = 0.101605




surfaceFieldValue massFlowAtFilter_92:
    total faces  = 1865
    total area   = 0.101654




surfaceFieldValue massFlowAtFilter_93:
    total faces  = 1679
    total area   = 0.10162




surfaceFieldValue massFlowAtFilter_94:
    total faces  = 1835
    total area   = 0.101589




surfaceFieldValue massFlowAtFilter_95:
    total faces  = 1805
    total area   = 0.101613




surfaceFieldValue massFlowAtFilter_96:
    total faces  = 1776
    total area   = 0.101577




surfaceFieldValue massFlowAtFilter_97:
    total faces  = 1863
    total area   = 0.101677




surfaceFieldValue massFlowAtFilter_98:
    total faces  = 1867
    total area   = 0.101646




surfaceFieldValue massFlowAtFilter_99:
    total faces  = 1636
    total area   = 0.10154


Time = 1

DILUPBiCG:  Solving for Ux, Initial residual = 1, Final residual = 1.96247e-06, No Iterations 6
DILUPBiCG:  Solving for Uy, Initial residual = 1, Final residual = 1.62445e-06, No Iterations 7
DILUPBiCG:  Solving for Uz, Initial residual = 1, Final residual = 5.61915e-06, No Iterations 6
DICPCG:  Solving for p, Initial residual = 1, Final residual = 0.0988059, No Iterations 317
DICPCG:  Solving for p, Initial residual = 0.00358151, Final residual = 0.000253164, No Iterations 4
DICPCG:  Solving for p, Initial residual = 0.000511372, Final residual = 4.85004e-05, No Iterations 51
time step continuity errors : sum local = 0.0470996, global = -0.000172574, cumulative = -0.000172574
DILUPBiCG:  Solving for epsilon, Initial residual = 0.0525551, Final residual = 9.36345e-06, No Iterations 3
DILUPBiCG:  Solving for k, Initial residual = 1, Final residual = 7.87565e-07, No Iterations 6
ExecutionTime = 6.83 s  ClockTime = 7 s

Time = 2

DILUPBiCG:  Solving for Ux, Initial residual = 0.000136067, Final residual = 4.22837e-06, No Iterations 2
DILUPBiCG:  Solving for Uy, Initial residual = 5.76397e-05, Final residual = 5.97369e-06, No Iterations 2
DILUPBiCG:  Solving for Uz, Initial residual = 0.00012407, Final residual = 2.53331e-06, No Iterations 2
DICPCG:  Solving for p, Initial residual = 0.012143, Final residual = 0.00121024, No Iterations 114
DICPCG:  Solving for p, Initial residual = 0.00600678, Final residual = 0.00058892, No Iterations 229
DICPCG:  Solving for p, Initial residual = 0.0051733, Final residual = 0.000517141, No Iterations 22
time step continuity errors : sum local = 0.0605325, global = -0.00301061, cumulative = -0.00318319
DILUPBiCG:  Solving for epsilon, Initial residual = 0.0136688, Final residual = 6.92257e-07, No Iterations 4
DILUPBiCG:  Solving for k, Initial residual = 0.521801, Final residual = 4.11323e-08, No Iterations 7
ExecutionTime = 11.33 s  ClockTime = 12 s

Time = 3

DILUPBiCG:  Solving for Ux, Initial residual = 2.03773e-05, Final residual = 3.51697e-06, No Iterations 1
DILUPBiCG:  Solving for Uy, Initial residual = 1.19618e-05, Final residual = 2.22746e-06, No Iterations 1
DILUPBiCG:  Solving for Uz, Initial residual = 2.98694e-05, Final residual = 8.88119e-06, No Iterations 1
DICPCG:  Solving for p, Initial residual = 0.0198549, Final residual = 0.00182418, No Iterations 296
DICPCG:  Solving for p, Initial residual = 0.00762428, Final residual = 0.000613442, No Iterations 4
DICPCG:  Solving for p, Initial residual = 0.00107349, Final residual = 0.000105503, No Iterations 34
time step continuity errors : sum local = 0.052757, global = 0.0006871, cumulative = -0.00249609
DILUPBiCG:  Solving for epsilon, Initial residual = 0.0183035, Final residual = 1.23853e-06, No Iterations 4
DILUPBiCG:  Solving for k, Initial residual = 0.26153, Final residual = 8.31276e-07, No Iterations 6
ExecutionTime = 15.43 s  ClockTime = 16 s

Time = 4

DILUPBiCG:  Solving for Ux, Initial residual = 5.43748e-06, Final residual = 5.43748e-06, No Iterations 0
DILUPBiCG:  Solving for Uy, Initial residual = 2.00817e-06, Final residual = 2.00817e-06, No Iterations 0
DILUPBiCG:  Solving for Uz, Initial residual = 6.72819e-06, Final residual = 6.72819e-06, No Iterations 0
DICPCG:  Solving for p, Initial residual = 0.0850365, Final residual = 0.008104, No Iterations 305
DICPCG:  Solving for p, Initial residual = 0.00558355, Final residual = 0.000433716, No Iterations 4
DICPCG:  Solving for p, Initial residual = 0.000778552, Final residual = 7.55403e-05, No Iterations 43
time step continuity errors : sum local = 0.0345951, global = 0.000104006, cumulative = -0.00239208
DILUPBiCG:  Solving for epsilon, Initial residual = 0.0176205, Final residual = 5.97538e-06, No Iterations 3
DILUPBiCG:  Solving for k, Initial residual = 0.15321, Final residual = 6.18389e-07, No Iterations 5
ExecutionTime = 19.61 s  ClockTime = 20 s

Time = 5

DILUPBiCG:  Solving for Ux, Initial residual = 1.65097e-05, Final residual = 3.30001e-06, No Iterations 1
DILUPBiCG:  Solving for Uy, Initial residual = 8.75117e-06, Final residual = 8.75117e-06, No Iterations 0
DILUPBiCG:  Solving for Uz, Initial residual = 1.49635e-05, Final residual = 3.59568e-06, No Iterations 1
DICPCG:  Solving for p, Initial residual = 0.0227785, Final residual = 0.00221718, No Iterations 47
DICPCG:  Solving for p, Initial residual = 0.00690518, Final residual = 0.000677808, No Iterations 261
DICPCG:  Solving for p, Initial residual = 0.00219809, Final residual = 0.000216627, No Iterations 9
time step continuity errors : sum local = 0.0621501, global = 0.000758694, cumulative = -0.00163339
DILUPBiCG:  Solving for epsilon, Initial residual = 0.0151667, Final residual = 3.64162e-06, No Iterations 3
DILUPBiCG:  Solving for k, Initial residual = 0.109215, Final residual = 4.99484e-07, No Iterations 5
ExecutionTime = 23.49 s  ClockTime = 24 s

Time = 6

DILUPBiCG:  Solving for Ux, Initial residual = 2.12357e-05, Final residual = 5.03439e-06, No Iterations 1
DILUPBiCG:  Solving for Uy, Initial residual = 1.2722e-05, Final residual = 2.48289e-06, No Iterations 1
DILUPBiCG:  Solving for Uz, Initial residual = 1.67452e-05, Final residual = 5.06087e-06, No Iterations 1
DICPCG:  Solving for p, Initial residual = 0.0251446, Final residual = 0.0025057, No Iterations 291
DICPCG:  Solving for p, Initial residual = 0.00839048, Final residual = 0.000793593, No Iterations 5
DICPCG:  Solving for p, Initial residual = 0.00122415, Final residual = 0.000118096, No Iterations 55
time step continuity errors : sum local = 0.0432161, global = 5.26811e-05, cumulative = -0.0015807
DILUPBiCG:  Solving for epsilon, Initial residual = 0.0139685, Final residual = 3.32918e-06, No Iterations 3
DILUPBiCG:  Solving for k, Initial residual = 0.0923967, Final residual = 4.70169e-07, No Iterations 5
ExecutionTime = 27.7 s  ClockTime = 28 s

Time = 7

DILUPBiCG:  Solving for Ux, Initial residual = 1.43152e-05, Final residual = 4.48776e-07, No Iterations 2
DILUPBiCG:  Solving for Uy, Initial residual = 4.08608e-06, Final residual = 4.08608e-06, No Iterations 0
DILUPBiCG:  Solving for Uz, Initial residual = 8.26561e-06, Final residual = 8.26561e-06, No Iterations 0
DICPCG:  Solving for p, Initial residual = 0.089173, Final residual = 0.00850808, No Iterations 293
DICPCG:  Solving for p, Initial residual = 0.00498491, Final residual = 0.000473618, No Iterations 4
DICPCG:  Solving for p, Initial residual = 0.000714992, Final residual = 6.76164e-05, No Iterations 50
time step continuity errors : sum local = 0.0270767, global = -0.000231983, cumulative = -0.00181269
DILUPBiCG:  Solving for epsilon, Initial residual = 0.0126271, Final residual = 3.09433e-06, No Iterations 3
DILUPBiCG:  Solving for k, Initial residual = 0.0759479, Final residual = 5.17382e-08, No Iterations 6
ExecutionTime = 31.87 s  ClockTime = 32 s

Time = 8

DILUPBiCG:  Solving for Ux, Initial residual = 1.84428e-05, Final residual = 3.57833e-06, No Iterations 1
DILUPBiCG:  Solving for Uy, Initial residual = 1.0649e-05, Final residual = 2.07301e-06, No Iterations 1
DILUPBiCG:  Solving for Uz, Initial residual = 1.69159e-05, Final residual = 3.91309e-06, No Iterations 1
DICPCG:  Solving for p, Initial residual = 0.0274978, Final residual = 0.00267425, No Iterations 61
DICPCG:  Solving for p, Initial residual = 0.00795092, Final residual = 0.000784433, No Iterations 66
DICPCG:  Solving for p, Initial residual = 0.00206041, Final residual = 0.00019455, No Iterations 256
time step continuity errors : sum local = 0.0201656, global = -5.83617e-06, cumulative = -0.00181852
DILUPBiCG:  Solving for epsilon, Initial residual = 0.0126707, Final residual = 7.01611e-07, No Iterations 4
DILUPBiCG:  Solving for k, Initial residual = 0.0638459, Final residual = 2.44256e-07, No Iterations 5
ExecutionTime = 36.43 s  ClockTime = 37 s

Time = 9

DILUPBiCG:  Solving for Ux, Initial residual = 6.29845e-06, Final residual = 6.29845e-06, No Iterations 0
DILUPBiCG:  Solving for Uy, Initial residual = 6.18728e-06, Final residual = 6.18728e-06, No Iterations 0
DILUPBiCG:  Solving for Uz, Initial residual = 8.07057e-06, Final residual = 8.07057e-06, No Iterations 0
DICPCG:  Solving for p, Initial residual = 0.0219055, Final residual = 0.00217688, No Iterations 98
DICPCG:  Solving for p, Initial residual = 0.00856318, Final residual = 0.000819807, No Iterations 230
DICPCG:  Solving for p, Initial residual = 0.0193511, Final residual = 0.00190009, No Iterations 9
time step continuity errors : sum local = 0.0428858, global = 0.0015286, cumulative = -0.00028992
DILUPBiCG:  Solving for epsilon, Initial residual = 0.0118258, Final residual = 4.05847e-06, No Iterations 3
DILUPBiCG:  Solving for k, Initial residual = 0.0567827, Final residual = 5.09624e-07, No Iterations 5
ExecutionTime = 40.49 s  ClockTime = 41 s

Time = 10

DILUPBiCG:  Solving for Ux, Initial residual = 3.73739e-06, Final residual = 3.73739e-06, No Iterations 0
DILUPBiCG:  Solving for Uy, Initial residual = 3.73696e-06, Final residual = 3.73696e-06, No Iterations 0
DILUPBiCG:  Solving for Uz, Initial residual = 4.66534e-06, Final residual = 4.66534e-06, No Iterations 0
DICPCG:  Solving for p, Initial residual = 0.0201654, Final residual = 0.00188253, No Iterations 293
DICPCG:  Solving for p, Initial residual = 0.00968439, Final residual = 0.000951857, No Iterations 4
DICPCG:  Solving for p, Initial residual = 0.00145126, Final residual = 0.000138624, No Iterations 52
time step continuity errors : sum local = 0.010725, global = 6.08759e-05, cumulative = -0.000229044
DILUPBiCG:  Solving for epsilon, Initial residual = 0.0111675, Final residual = 3.44075e-06, No Iterations 3
DILUPBiCG:  Solving for k, Initial residual = 0.0516706, Final residual = 8.88776e-07, No Iterations 5
ExecutionTime = 44.57 s  ClockTime = 45 s

Time = 11

DILUPBiCG:  Solving for Ux, Initial residual = 5.56394e-06, Final residual = 5.56394e-06, No Iterations 0
DILUPBiCG:  Solving for Uy, Initial residual = 1.40931e-06, Final residual = 1.40931e-06, No Iterations 0
DILUPBiCG:  Solving for Uz, Initial residual = 4.75752e-06, Final residual = 4.75752e-06, No Iterations 0
DICPCG:  Solving for p, Initial residual = 0.0348628, Final residual = 0.00334116, No Iterations 294
DICPCG:  Solving for p, Initial residual = 0.00557484, Final residual = 0.000529874, No Iterations 4
DICPCG:  Solving for p, Initial residual = 0.000804884, Final residual = 7.70086e-05, No Iterations 51
time step continuity errors : sum local = 0.00714474, global = 4.4419e-05, cumulative = -0.000184625
DILUPBiCG:  Solving for epsilon, Initial residual = 0.0104968, Final residual = 3.49239e-06, No Iterations 3
DILUPBiCG:  Solving for k, Initial residual = 0.0476358, Final residual = 6.43332e-08, No Iterations 6
ExecutionTime = 48.69 s  ClockTime = 49 s

Time = 12

DILUPBiCG:  Solving for Ux, Initial residual = 6.94016e-06, Final residual = 6.94016e-06, No Iterations 0
DILUPBiCG:  Solving for Uy, Initial residual = 1.37321e-06, Final residual = 1.37321e-06, No Iterations 0
DILUPBiCG:  Solving for Uz, Initial residual = 5.58523e-06, Final residual = 5.58523e-06, No Iterations 0
DICPCG:  Solving for p, Initial residual = 0.0534206, Final residual = 0.00528939, No Iterations 289
DICPCG:  Solving for p, Initial residual = 0.00422996, Final residual = 0.000403824, No Iterations 17
DICPCG:  Solving for p, Initial residual = 0.000774844, Final residual = 7.00391e-05, No Iterations 49
time step continuity errors : sum local = 0.00530148, global = -3.24052e-05, cumulative = -0.00021703
DILUPBiCG:  Solving for epsilon, Initial residual = 0.0099339, Final residual = 3.8647e-06, No Iterations 3
DILUPBiCG:  Solving for k, Initial residual = 0.0443938, Final residual = 8.05449e-08, No Iterations 6
ExecutionTime = 52.89 s  ClockTime = 53 s

Time = 13

DILUPBiCG:  Solving for Ux, Initial residual = 6.58772e-06, Final residual = 6.58772e-06, No Iterations 0
DILUPBiCG:  Solving for Uy, Initial residual = 2.28123e-06, Final residual = 2.28123e-06, No Iterations 0
DILUPBiCG:  Solving for Uz, Initial residual = 5.72672e-06, Final residual = 5.72672e-06, No Iterations 0
DICPCG:  Solving for p, Initial residual = 0.0272206, Final residual = 0.0026601, No Iterations 54
DICPCG:  Solving for p, Initial residual = 0.00771733, Final residual = 0.000736705, No Iterations 60
DICPCG:  Solving for p, Initial residual = 0.0023228, Final residual = 0.000230028, No Iterations 244
time step continuity errors : sum local = 0.00779943, global = 5.83603e-06, cumulative = -0.000211194
DILUPBiCG:  Solving for epsilon, Initial residual = 0.00953541, Final residual = 5.74217e-06, No Iterations 3
DILUPBiCG:  Solving for k, Initial residual = 0.0417216, Final residual = 8.81014e-07, No Iterations 5
ExecutionTime = 57.04 s  ClockTime = 57 s

Time = 14

DILUPBiCG:  Solving for Ux, Initial residual = 4.81208e-06, Final residual = 4.81208e-06, No Iterations 0
DILUPBiCG:  Solving for Uy, Initial residual = 2.48242e-06, Final residual = 2.48242e-06, No Iterations 0
DILUPBiCG:  Solving for Uz, Initial residual = 4.59061e-06, Final residual = 4.59061e-06, No Iterations 0
DICPCG:  Solving for p, Initial residual = 0.0227625, Final residual = 0.00212557, No Iterations 95
DICPCG:  Solving for p, Initial residual = 0.00826581, Final residual = 0.000778114, No Iterations 249
DICPCG:  Solving for p, Initial residual = 0.0302767, Final residual = 0.00299747, No Iterations 11
time step continuity errors : sum local = 0.0138519, global = 0.000123222, cumulative = -8.79715e-05
DILUPBiCG:  Solving for epsilon, Initial residual = 0.00933405, Final residual = 4.17517e-07, No Iterations 4
DILUPBiCG:  Solving for k, Initial residual = 0.0393715, Final residual = 5.35438e-07, No Iterations 5
ExecutionTime = 61.22 s  ClockTime = 61 s

Time = 15

DILUPBiCG:  Solving for Ux, Initial residual = 2.97791e-06, Final residual = 2.97791e-06, No Iterations 0
DILUPBiCG:  Solving for Uy, Initial residual = 1.91112e-06, Final residual = 1.91112e-06, No Iterations 0
DILUPBiCG:  Solving for Uz, Initial residual = 3.09996e-06, Final residual = 3.09996e-06, No Iterations 0
DICPCG:  Solving for p, Initial residual = 0.0227369, Final residual = 0.00223977, No Iterations 291
DICPCG:  Solving for p, Initial residual = 0.0112207, Final residual = 0.00111396, No Iterations 14
DICPCG:  Solving for p, Initial residual = 0.00186376, Final residual = 0.000184945, No Iterations 55
time step continuity errors : sum local = 0.00505268, global = 2.661e-06, cumulative = -8.53105e-05
DILUPBiCG:  Solving for epsilon, Initial residual = 0.00928508, Final residual = 2.45566e-06, No Iterations 4
DILUPBiCG:  Solving for k, Initial residual = 0.03722, Final residual = 5.403e-07, No Iterations 5
ExecutionTime = 65.47 s  ClockTime = 66 s

Time = 16

DILUPBiCG:  Solving for Ux, Initial residual = 2.69231e-06, Final residual = 2.69231e-06, No Iterations 0
DILUPBiCG:  Solving for Uy, Initial residual = 9.9292e-07, Final residual = 9.9292e-07, No Iterations 0
DILUPBiCG:  Solving for Uz, Initial residual = 2.67094e-06, Final residual = 2.67094e-06, No Iterations 0
DICPCG:  Solving for p, Initial residual = 0.0347799, Final residual = 0.0034767, No Iterations 293
DICPCG:  Solving for p, Initial residual = 0.00606695, Final residual = 0.000584945, No Iterations 5
DICPCG:  Solving for p, Initial residual = 0.000901365, Final residual = 8.97325e-05, No Iterations 59
time step continuity errors : sum local = 0.00355868, global = -1.82979e-06, cumulative = -8.71402e-05
DILUPBiCG:  Solving for epsilon, Initial residual = 0.00921545, Final residual = 4.79705e-07, No Iterations 4
DILUPBiCG:  Solving for k, Initial residual = 0.0351921, Final residual = 1.67979e-08, No Iterations 6
ExecutionTime = 69.73 s  ClockTime = 70 s

Time = 17

DILUPBiCG:  Solving for Ux, Initial residual = 2.99468e-06, Final residual = 2.99468e-06, No Iterations 0
DILUPBiCG:  Solving for Uy, Initial residual = 5.51118e-07, Final residual = 5.51118e-07, No Iterations 0
DILUPBiCG:  Solving for Uz, Initial residual = 2.87261e-06, Final residual = 2.87261e-06, No Iterations 0
DICPCG:  Solving for p, Initial residual = 0.0565603, Final residual = 0.00551854, No Iterations 292
DICPCG:  Solving for p, Initial residual = 0.00403462, Final residual = 0.000396848, No Iterations 13
DICPCG:  Solving for p, Initial residual = 0.000682169, Final residual = 6.34603e-05, No Iterations 43
time step continuity errors : sum local = 0.00239859, global = -1.09334e-05, cumulative = -9.80736e-05
DILUPBiCG:  Solving for epsilon, Initial residual = 0.00904704, Final residual = 9.18503e-06, No Iterations 3
DILUPBiCG:  Solving for k, Initial residual = 0.0332848, Final residual = 7.91288e-07, No Iterations 5
ExecutionTime = 73.83 s  ClockTime = 74 s

Time = 18

DILUPBiCG:  Solving for Ux, Initial residual = 2.85141e-06, Final residual = 2.85141e-06, No Iterations 0
DILUPBiCG:  Solving for Uy, Initial residual = 9.55546e-07, Final residual = 9.55546e-07, No Iterations 0
DILUPBiCG:  Solving for Uz, Initial residual = 2.99301e-06, Final residual = 2.99301e-06, No Iterations 0
DICPCG:  Solving for p, Initial residual = 0.0230688, Final residual = 0.00223068, No Iterations 47
DICPCG:  Solving for p, Initial residual = 0.00581676, Final residual = 0.000576337, No Iterations 229
DICPCG:  Solving for p, Initial residual = 0.00196715, Final residual = 0.000194943, No Iterations 6
time step continuity errors : sum local = 0.00518266, global = 5.2244e-05, cumulative = -4.58296e-05
DILUPBiCG:  Solving for epsilon, Initial residual = 0.00883376, Final residual = 5.10121e-07, No Iterations 4
DILUPBiCG:  Solving for k, Initial residual = 0.0315529, Final residual = 3.48175e-07, No Iterations 5
ExecutionTime = 77.38 s  ClockTime = 78 s

Time = 19

DILUPBiCG:  Solving for Ux, Initial residual = 2.29504e-06, Final residual = 2.29504e-06, No Iterations 0
DILUPBiCG:  Solving for Uy, Initial residual = 1.1126e-06, Final residual = 1.1126e-06, No Iterations 0
DILUPBiCG:  Solving for Uz, Initial residual = 2.73367e-06, Final residual = 2.73367e-06, No Iterations 0
DICPCG:  Solving for p, Initial residual = 0.0179668, Final residual = 0.00177556, No Iterations 72
DICPCG:  Solving for p, Initial residual = 0.00554797, Final residual = 0.00054803, No Iterations 254
DICPCG:  Solving for p, Initial residual = 0.00282822, Final residual = 0.000276246, No Iterations 25
time step continuity errors : sum local = 0.00336324, global = 1.89978e-05, cumulative = -2.68318e-05
DILUPBiCG:  Solving for epsilon, Initial residual = 0.00862527, Final residual = 4.20285e-07, No Iterations 4
DILUPBiCG:  Solving for k, Initial residual = 0.0300097, Final residual = 2.51798e-07, No Iterations 5
ExecutionTime = 81.5 s  ClockTime = 82 s

Time = 20

DILUPBiCG:  Solving for Ux, Initial residual = 1.78937e-06, Final residual = 1.78937e-06, No Iterations 0
DILUPBiCG:  Solving for Uy, Initial residual = 9.72959e-07, Final residual = 9.72959e-07, No Iterations 0
DILUPBiCG:  Solving for Uz, Initial residual = 2.32084e-06, Final residual = 2.32084e-06, No Iterations 0
DICPCG:  Solving for p, Initial residual = 0.016384, Final residual = 0.00157071, No Iterations 291
DICPCG:  Solving for p, Initial residual = 0.0304, Final residual = 0.00292085, No Iterations 20
DICPCG:  Solving for p, Initial residual = 0.00549745, Final residual = 0.000549072, No Iterations 49
time step continuity errors : sum local = 0.00217132, global = -1.46178e-05, cumulative = -4.14496e-05
DILUPBiCG:  Solving for epsilon, Initial residual = 0.00844666, Final residual = 4.11935e-07, No Iterations 4
DILUPBiCG:  Solving for k, Initial residual = 0.0286743, Final residual = 2.10095e-07, No Iterations 5
ExecutionTime = 85.73 s  ClockTime = 86 s

forces porousforces write:
    sum of forces:
        pressure : (0 0 0)
        viscous  : (0 0 0)
        porous   : (90133.9 -4.39489e-13 70049.2)
    sum of moments:
        pressure : (0 0 0)
        viscous  : (0 0 0)
        porous   : (63418.1 11688.1 -79742.9)

volFieldValue volFieldValue_0 write:
    volIntegrate(cz_solid_0) of U = (1.575e-09 -1.80083e-09 -3.55509e-09)

surfaceFieldValue massFlowAtFilter_0 write:
    sum(fz_solid_0) of phi = -4.61901e-07

volFieldValue volFieldValue_1 write:
    volIntegrate(cz_solid_1) of U = (4.10524e-10 -1.64479e-09 -3.14919e-09)

surfaceFieldValue massFlowAtFilter_1 write:
    sum(fz_solid_1) of phi = 2.74007e-05

volFieldValue volFieldValue_2 write:
    volIntegrate(cz_solid_2) of U = (-5.0291e-10 -1.67208e-09 -2.68317e-09)

surfaceFieldValue massFlowAtFilter_2 write:
    sum(fz_solid_2) of phi = -9.46812e-07

volFieldValue volFieldValue_3 write:
    volIntegrate(cz_solid_3) of U = (-1.24324e-09 -1.59236e-09 -2.03728e-09)

surfaceFieldValue massFlowAtFilter_3 write:
    sum(fz_solid_3) of phi = -2.90417e-05

volFieldValue volFieldValue_4 write:
    volIntegrate(cz_solid_4) of U = (-1.88083e-09 -1.46781e-09 -1.38547e-09)

surfaceFieldValue massFlowAtFilter_4 write:
    sum(fz_solid_4) of phi = -2.15828e-05

volFieldValue volFieldValue_5 write:
    volIntegrate(cz_solid_5) of U = (-2.41956e-09 -1.36558e-09 -6.46477e-10)

surfaceFieldValue massFlowAtFilter_5 write:
    sum(fz_solid_5) of phi = -4.41513e-05

volFieldValue volFieldValue_6 write:
    volIntegrate(cz_solid_6) of U = (-2.87927e-09 -1.26243e-09 2.1855e-10)

surfaceFieldValue massFlowAtFilter_6 write:
    sum(fz_solid_6) of phi = -3.10185e-05

volFieldValue volFieldValue_7 write:
    volIntegrate(cz_solid_7) of U = (-3.12226e-09 -1.08578e-09 1.34445e-09)

surfaceFieldValue massFlowAtFilter_7 write:
    sum(fz_solid_7) of phi = -3.76104e-05

volFieldValue volFieldValue_8 write:
    volIntegrate(cz_solid_8) of U = (-3.02477e-09 -9.54884e-10 2.52127e-09)

surfaceFieldValue massFlowAtFilter_8 write:
    sum(fz_solid_8) of phi = 9.31501e-06

volFieldValue volFieldValue_9 write:
    volIntegrate(cz_solid_9) of U = (-2.43924e-09 -7.65165e-10 3.76498e-09)

surfaceFieldValue massFlowAtFilter_9 write:
    sum(fz_solid_9) of phi = -5.18532e-05

volFieldValue volFieldValue_10 write:
    volIntegrate(cz_solid_10) of U = (-1.20799e-09 -5.24087e-10 4.87969e-09)

surfaceFieldValue massFlowAtFilter_10 write:
    sum(fz_solid_10) of phi = 1.54783e-05

volFieldValue volFieldValue_11 write:
    volIntegrate(cz_solid_11) of U = (2.22906e-10 -2.35992e-10 5.54319e-09)

surfaceFieldValue massFlowAtFilter_11 write:
    sum(fz_solid_11) of phi = -4.07335e-05

volFieldValue volFieldValue_12 write:
    volIntegrate(cz_solid_12) of U = (2.13321e-09 6.69628e-11 5.77169e-09)

surfaceFieldValue massFlowAtFilter_12 write:
    sum(fz_solid_12) of phi = -0.000143848

volFieldValue volFieldValue_13 write:
    volIntegrate(cz_solid_13) of U = (4.05572e-09 8.23359e-11 5.22209e-09)

surfaceFieldValue massFlowAtFilter_13 write:
    sum(fz_solid_13) of phi = 4.53232e-05

volFieldValue volFieldValue_14 write:
    volIntegrate(cz_solid_14) of U = (5.72188e-09 -5.66836e-10 4.05834e-09)

surfaceFieldValue massFlowAtFilter_14 write:
    sum(fz_solid_14) of phi = -7.16015e-05

volFieldValue volFieldValue_15 write:
    volIntegrate(cz_solid_15) of U = (6.78283e-09 -9.55152e-10 2.17478e-09)

surfaceFieldValue massFlowAtFilter_15 write:
    sum(fz_solid_15) of phi = 3.73265e-05

volFieldValue volFieldValue_16 write:
    volIntegrate(cz_solid_16) of U = (6.77526e-09 -1.45092e-09 1.08131e-10)

surfaceFieldValue massFlowAtFilter_16 write:
    sum(fz_solid_16) of phi = -7.82321e-05

volFieldValue volFieldValue_17 write:
    volIntegrate(cz_solid_17) of U = (5.9357e-09 -1.95572e-09 -1.74364e-09)

surfaceFieldValue massFlowAtFilter_17 write:
    sum(fz_solid_17) of phi = 1.01912e-05

volFieldValue volFieldValue_18 write:
    volIntegrate(cz_solid_18) of U = (4.65484e-09 -2.13907e-09 -2.91654e-09)

surfaceFieldValue massFlowAtFilter_18 write:
    sum(fz_solid_18) of phi = 6.15699e-05

volFieldValue volFieldValue_19 write:
    volIntegrate(cz_solid_19) of U = (3.06751e-09 -1.98901e-09 -3.55549e-09)

surfaceFieldValue massFlowAtFilter_19 write:
    sum(fz_solid_19) of phi = 5.81099e-05

volFieldValue volFieldValue_20 write:
    volIntegrate(cz_solid_20) of U = (1.4994e-09 -6.48907e-09 -3.35831e-09)

surfaceFieldValue massFlowAtFilter_20 write:
    sum(fz_solid_20) of phi = -5.4391e-06

volFieldValue volFieldValue_21 write:
    volIntegrate(cz_solid_21) of U = (3.58099e-10 -5.84027e-09 -2.96281e-09)

surfaceFieldValue massFlowAtFilter_21 write:
    sum(fz_solid_21) of phi = 2.83675e-05

volFieldValue volFieldValue_22 write:
    volIntegrate(cz_solid_22) of U = (-5.09598e-10 -5.72969e-09 -2.51373e-09)

surfaceFieldValue massFlowAtFilter_22 write:
    sum(fz_solid_22) of phi = 1.03167e-05

volFieldValue volFieldValue_23 write:
    volIntegrate(cz_solid_23) of U = (-1.21346e-09 -5.35229e-09 -1.89414e-09)

surfaceFieldValue massFlowAtFilter_23 write:
    sum(fz_solid_23) of phi = -1.01994e-05

volFieldValue volFieldValue_24 write:
    volIntegrate(cz_solid_24) of U = (-1.80115e-09 -5.26472e-09 -1.27639e-09)

surfaceFieldValue massFlowAtFilter_24 write:
    sum(fz_solid_24) of phi = -2.36259e-05

volFieldValue volFieldValue_25 write:
    volIntegrate(cz_solid_25) of U = (-2.32217e-09 -5.15043e-09 -5.89125e-10)

surfaceFieldValue massFlowAtFilter_25 write:
    sum(fz_solid_25) of phi = 7.36331e-06

volFieldValue volFieldValue_26 write:
    volIntegrate(cz_solid_26) of U = (-2.7815e-09 -5.09201e-09 2.26194e-10)

surfaceFieldValue massFlowAtFilter_26 write:
    sum(fz_solid_26) of phi = 3.60925e-06

volFieldValue volFieldValue_27 write:
    volIntegrate(cz_solid_27) of U = (-3.04091e-09 -5.32525e-09 1.33612e-09)

surfaceFieldValue massFlowAtFilter_27 write:
    sum(fz_solid_27) of phi = 1.32879e-05

volFieldValue volFieldValue_28 write:
    volIntegrate(cz_solid_28) of U = (-2.96801e-09 -5.67477e-09 2.52167e-09)

surfaceFieldValue massFlowAtFilter_28 write:
    sum(fz_solid_28) of phi = 3.24725e-07

volFieldValue volFieldValue_29 write:
    volIntegrate(cz_solid_29) of U = (-2.4212e-09 -6.07762e-09 3.80764e-09)

surfaceFieldValue massFlowAtFilter_29 write:
    sum(fz_solid_29) of phi = 7.93088e-05

volFieldValue volFieldValue_30 write:
    volIntegrate(cz_solid_30) of U = (-1.21204e-09 -6.82831e-09 5.05456e-09)

surfaceFieldValue massFlowAtFilter_30 write:
    sum(fz_solid_30) of phi = 4.66497e-05

volFieldValue volFieldValue_31 write:
    volIntegrate(cz_solid_31) of U = (2.63162e-10 -7.75425e-09 5.89098e-09)

surfaceFieldValue massFlowAtFilter_31 write:
    sum(fz_solid_31) of phi = -9.7453e-06

volFieldValue volFieldValue_32 write:
    volIntegrate(cz_solid_32) of U = (2.33431e-09 -9.09841e-09 6.26887e-09)

surfaceFieldValue massFlowAtFilter_32 write:
    sum(fz_solid_32) of phi = -1.58116e-05

volFieldValue volFieldValue_33 write:
    volIntegrate(cz_solid_33) of U = (4.50747e-09 -1.01393e-08 5.77183e-09)

surfaceFieldValue massFlowAtFilter_33 write:
    sum(fz_solid_33) of phi = 3.65512e-05

volFieldValue volFieldValue_34 write:
    volIntegrate(cz_solid_34) of U = (6.39544e-09 -1.11435e-08 4.48644e-09)

surfaceFieldValue massFlowAtFilter_34 write:
    sum(fz_solid_34) of phi = -2.70569e-05

volFieldValue volFieldValue_35 write:
    volIntegrate(cz_solid_35) of U = (7.46443e-09 -1.17023e-08 2.47189e-09)

surfaceFieldValue massFlowAtFilter_35 write:
    sum(fz_solid_35) of phi = 6.46084e-05

volFieldValue volFieldValue_36 write:
    volIntegrate(cz_solid_36) of U = (7.30616e-09 -1.11796e-08 2.57683e-10)

surfaceFieldValue massFlowAtFilter_36 write:
    sum(fz_solid_36) of phi = -9.84691e-06

volFieldValue volFieldValue_37 write:
    volIntegrate(cz_solid_37) of U = (6.191e-09 -9.81121e-09 -1.64364e-09)

surfaceFieldValue massFlowAtFilter_37 write:
    sum(fz_solid_37) of phi = 0.000110447

volFieldValue volFieldValue_38 write:
    volIntegrate(cz_solid_38) of U = (4.70755e-09 -8.67742e-09 -2.78939e-09)

surfaceFieldValue massFlowAtFilter_38 write:
    sum(fz_solid_38) of phi = 8.65771e-05

volFieldValue volFieldValue_39 write:
    volIntegrate(cz_solid_39) of U = (3.01679e-09 -7.65807e-09 -3.38701e-09)

surfaceFieldValue massFlowAtFilter_39 write:
    sum(fz_solid_39) of phi = 4.3548e-05

volFieldValue volFieldValue_40 write:
    volIntegrate(cz_solid_40) of U = (9.89964e-10 -8.28005e-09 -1.77863e-09)

surfaceFieldValue massFlowAtFilter_40 write:
    sum(fz_solid_40) of phi = 1.98818e-05

volFieldValue volFieldValue_41 write:
    volIntegrate(cz_solid_41) of U = (2.79864e-10 -7.39655e-09 -1.62573e-09)

surfaceFieldValue massFlowAtFilter_41 write:
    sum(fz_solid_41) of phi = 3.38016e-05

volFieldValue volFieldValue_42 write:
    volIntegrate(cz_solid_42) of U = (-2.652e-10 -7.24204e-09 -1.3908e-09)

surfaceFieldValue massFlowAtFilter_42 write:
    sum(fz_solid_42) of phi = 3.88158e-06

volFieldValue volFieldValue_43 write:
    volIntegrate(cz_solid_43) of U = (-7.24604e-10 -6.80515e-09 -1.02555e-09)

surfaceFieldValue massFlowAtFilter_43 write:
    sum(fz_solid_43) of phi = 9.35515e-06

volFieldValue volFieldValue_44 write:
    volIntegrate(cz_solid_44) of U = (-1.13054e-09 -6.72366e-09 -6.50034e-10)

surfaceFieldValue massFlowAtFilter_44 write:
    sum(fz_solid_44) of phi = -2.48851e-07

volFieldValue volFieldValue_45 write:
    volIntegrate(cz_solid_45) of U = (-1.50665e-09 -6.61272e-09 -2.17881e-10)

surfaceFieldValue massFlowAtFilter_45 write:
    sum(fz_solid_45) of phi = 6.74536e-06

volFieldValue volFieldValue_46 write:
    volIntegrate(cz_solid_46) of U = (-1.84149e-09 -6.60353e-09 3.41985e-10)

surfaceFieldValue massFlowAtFilter_46 write:
    sum(fz_solid_46) of phi = 6.47236e-06

volFieldValue volFieldValue_47 write:
    volIntegrate(cz_solid_47) of U = (-1.99787e-09 -6.88172e-09 1.13592e-09)

surfaceFieldValue massFlowAtFilter_47 write:
    sum(fz_solid_47) of phi = 4.87838e-06

volFieldValue volFieldValue_48 write:
    volIntegrate(cz_solid_48) of U = (-1.90374e-09 -7.43281e-09 1.96962e-09)

surfaceFieldValue massFlowAtFilter_48 write:
    sum(fz_solid_48) of phi = -5.19721e-06

volFieldValue volFieldValue_49 write:
    volIntegrate(cz_solid_49) of U = (-1.43113e-09 -8.00711e-09 2.87066e-09)

surfaceFieldValue massFlowAtFilter_49 write:
    sum(fz_solid_49) of phi = 4.18408e-05

volFieldValue volFieldValue_50 write:
    volIntegrate(cz_solid_50) of U = (-4.40514e-10 -8.90866e-09 3.69466e-09)

surfaceFieldValue massFlowAtFilter_50 write:
    sum(fz_solid_50) of phi = 3.26178e-05

volFieldValue volFieldValue_51 write:
    volIntegrate(cz_solid_51) of U = (6.94633e-10 -1.01143e-08 4.16276e-09)

surfaceFieldValue massFlowAtFilter_51 write:
    sum(fz_solid_51) of phi = 9.77618e-06

volFieldValue volFieldValue_52 write:
    volIntegrate(cz_solid_52) of U = (2.2086e-09 -1.1934e-08 4.334e-09)

surfaceFieldValue massFlowAtFilter_52 write:
    sum(fz_solid_52) of phi = 4.62672e-06

volFieldValue volFieldValue_53 write:
    volIntegrate(cz_solid_53) of U = (3.79973e-09 -1.40125e-08 4.0459e-09)

surfaceFieldValue massFlowAtFilter_53 write:
    sum(fz_solid_53) of phi = 4.87538e-05

volFieldValue volFieldValue_54 write:
    volIntegrate(cz_solid_54) of U = (5.3209e-09 -1.63352e-08 3.4372e-09)

surfaceFieldValue massFlowAtFilter_54 write:
    sum(fz_solid_54) of phi = -2.28748e-05

volFieldValue volFieldValue_55 write:
    volIntegrate(cz_solid_55) of U = (6.31678e-09 -1.85495e-08 2.40452e-09)

surfaceFieldValue massFlowAtFilter_55 write:
    sum(fz_solid_55) of phi = 2.67769e-05

volFieldValue volFieldValue_56 write:
    volIntegrate(cz_solid_56) of U = (5.9581e-09 -1.82436e-08 1.31182e-09)

surfaceFieldValue massFlowAtFilter_56 write:
    sum(fz_solid_56) of phi = 2.72291e-05

volFieldValue volFieldValue_57 write:
    volIntegrate(cz_solid_57) of U = (4.54085e-09 -1.46303e-08 8.96286e-11)

surfaceFieldValue massFlowAtFilter_57 write:
    sum(fz_solid_57) of phi = 4.58329e-05

volFieldValue volFieldValue_58 write:
    volIntegrate(cz_solid_58) of U = (3.10746e-09 -1.16294e-08 -1.11446e-09)

surfaceFieldValue massFlowAtFilter_58 write:
    sum(fz_solid_58) of phi = 4.94505e-05

volFieldValue volFieldValue_59 write:
    volIntegrate(cz_solid_59) of U = (1.94461e-09 -9.85423e-09 -1.68323e-09)

surfaceFieldValue massFlowAtFilter_59 write:
    sum(fz_solid_59) of phi = 5.07777e-05

volFieldValue volFieldValue_60 write:
    volIntegrate(cz_solid_60) of U = (8.50288e-11 -6.43426e-09 6.08882e-11)

surfaceFieldValue massFlowAtFilter_60 write:
    sum(fz_solid_60) of phi = -1.13611e-05

volFieldValue volFieldValue_61 write:
    volIntegrate(cz_solid_61) of U = (5.01332e-11 -5.59977e-09 -1.63337e-10)

surfaceFieldValue massFlowAtFilter_61 write:
    sum(fz_solid_61) of phi = -4.4508e-06

volFieldValue volFieldValue_62 write:
    volIntegrate(cz_solid_62) of U = (-9.334e-11 -5.38588e-09 -2.14075e-10)

surfaceFieldValue massFlowAtFilter_62 write:
    sum(fz_solid_62) of phi = -1.20613e-05

volFieldValue volFieldValue_63 write:
    volIntegrate(cz_solid_63) of U = (-2.9259e-10 -4.93294e-09 -1.43375e-10)

surfaceFieldValue massFlowAtFilter_63 write:
    sum(fz_solid_63) of phi = -1.25752e-05

volFieldValue volFieldValue_64 write:
    volIntegrate(cz_solid_64) of U = (-5.34604e-10 -4.82296e-09 -3.76768e-11)

surfaceFieldValue massFlowAtFilter_64 write:
    sum(fz_solid_64) of phi = -1.399e-05

volFieldValue volFieldValue_65 write:
    volIntegrate(cz_solid_65) of U = (-7.80934e-10 -4.69795e-09 1.31095e-10)

surfaceFieldValue massFlowAtFilter_65 write:
    sum(fz_solid_65) of phi = -1.70062e-05

volFieldValue volFieldValue_66 write:
    volIntegrate(cz_solid_66) of U = (-1.013e-09 -4.65208e-09 4.54212e-10)

surfaceFieldValue massFlowAtFilter_66 write:
    sum(fz_solid_66) of phi = -2.30636e-05

volFieldValue volFieldValue_67 write:
    volIntegrate(cz_solid_67) of U = (-1.10878e-09 -4.79957e-09 9.7833e-10)

surfaceFieldValue massFlowAtFilter_67 write:
    sum(fz_solid_67) of phi = -1.98263e-05

volFieldValue volFieldValue_68 write:
    volIntegrate(cz_solid_68) of U = (-1.02262e-09 -5.10293e-09 1.53953e-09)

surfaceFieldValue massFlowAtFilter_68 write:
    sum(fz_solid_68) of phi = -3.53357e-05

volFieldValue volFieldValue_69 write:
    volIntegrate(cz_solid_69) of U = (-6.37937e-10 -5.48297e-09 2.18755e-09)

surfaceFieldValue massFlowAtFilter_69 write:
    sum(fz_solid_69) of phi = 1.37398e-06

volFieldValue volFieldValue_70 write:
    volIntegrate(cz_solid_70) of U = (1.76247e-10 -6.09924e-09 2.80395e-09)

surfaceFieldValue massFlowAtFilter_70 write:
    sum(fz_solid_70) of phi = 6.21478e-06

volFieldValue volFieldValue_71 write:
    volIntegrate(cz_solid_71) of U = (1.13185e-09 -7.13375e-09 3.16556e-09)

surfaceFieldValue massFlowAtFilter_71 write:
    sum(fz_solid_71) of phi = -5.3764e-06

volFieldValue volFieldValue_72 write:
    volIntegrate(cz_solid_72) of U = (2.543e-09 -8.88343e-09 3.32862e-09)

surfaceFieldValue massFlowAtFilter_72 write:
    sum(fz_solid_72) of phi = -2.37952e-05

volFieldValue volFieldValue_73 write:
    volIntegrate(cz_solid_73) of U = (4.27832e-09 -1.14654e-08 3.23664e-09)

surfaceFieldValue massFlowAtFilter_73 write:
    sum(fz_solid_73) of phi = 1.74214e-06

volFieldValue volFieldValue_74 write:
    volIntegrate(cz_solid_74) of U = (6.61899e-09 -1.56579e-08 2.94159e-09)

surfaceFieldValue massFlowAtFilter_74 write:
    sum(fz_solid_74) of phi = -7.59529e-05

volFieldValue volFieldValue_75 write:
    volIntegrate(cz_solid_75) of U = (9.32845e-09 -2.30313e-08 1.96722e-09)

surfaceFieldValue massFlowAtFilter_75 write:
    sum(fz_solid_75) of phi = -7.39529e-05

volFieldValue volFieldValue_76 write:
    volIntegrate(cz_solid_76) of U = (1.03218e-08 -3.4324e-08 1.3374e-09)

surfaceFieldValue massFlowAtFilter_76 write:
    sum(fz_solid_76) of phi = -0.000102706

volFieldValue volFieldValue_77 write:
    volIntegrate(cz_solid_77) of U = (4.21873e-09 -2.95894e-08 7.57425e-09)

surfaceFieldValue massFlowAtFilter_77 write:
    sum(fz_solid_77) of phi = -4.56748e-05

volFieldValue volFieldValue_78 write:
    volIntegrate(cz_solid_78) of U = (-2.05253e-09 -1.09573e-08 1.18711e-09)

surfaceFieldValue massFlowAtFilter_78 write:
    sum(fz_solid_78) of phi = -4.25157e-05

volFieldValue volFieldValue_79 write:
    volIntegrate(cz_solid_79) of U = (-3.63516e-10 -7.45219e-09 4.1217e-10)

surfaceFieldValue massFlowAtFilter_79 write:
    sum(fz_solid_79) of phi = -1.33488e-05

volFieldValue volFieldValue_80 write:
    volIntegrate(cz_solid_80) of U = (-6.17709e-10 -3.27514e-09 1.17901e-09)

surfaceFieldValue massFlowAtFilter_80 write:
    sum(fz_solid_80) of phi = -4.43873e-06

volFieldValue volFieldValue_81 write:
    volIntegrate(cz_solid_81) of U = (-1.75731e-10 -2.74608e-09 7.15444e-10)

surfaceFieldValue massFlowAtFilter_81 write:
    sum(fz_solid_81) of phi = -1.55917e-06

volFieldValue volFieldValue_82 write:
    volIntegrate(cz_solid_82) of U = (-6.68321e-11 -2.4562e-09 4.4977e-10)

surfaceFieldValue massFlowAtFilter_82 write:
    sum(fz_solid_82) of phi = 4.41253e-06

volFieldValue volFieldValue_83 write:
    volIntegrate(cz_solid_83) of U = (-1.14155e-10 -2.16813e-09 3.33174e-10)

surfaceFieldValue massFlowAtFilter_83 write:
    sum(fz_solid_83) of phi = -7.88765e-06

volFieldValue volFieldValue_84 write:
    volIntegrate(cz_solid_84) of U = (-2.66428e-10 -2.0377e-09 2.87815e-10)

surfaceFieldValue massFlowAtFilter_84 write:
    sum(fz_solid_84) of phi = 1.41756e-05

volFieldValue volFieldValue_85 write:
    volIntegrate(cz_solid_85) of U = (-4.32619e-10 -1.90395e-09 3.3492e-10)

surfaceFieldValue massFlowAtFilter_85 write:
    sum(fz_solid_85) of phi = -1.82445e-05

volFieldValue volFieldValue_86 write:
    volIntegrate(cz_solid_86) of U = (-5.97256e-10 -1.80667e-09 5.46559e-10)

surfaceFieldValue massFlowAtFilter_86 write:
    sum(fz_solid_86) of phi = -7.15773e-06

volFieldValue volFieldValue_87 write:
    volIntegrate(cz_solid_87) of U = (-6.38463e-10 -1.87637e-09 9.35883e-10)

surfaceFieldValue massFlowAtFilter_87 write:
    sum(fz_solid_87) of phi = -1.25526e-05

volFieldValue volFieldValue_88 write:
    volIntegrate(cz_solid_88) of U = (-5.38235e-10 -2.06259e-09 1.34978e-09)

surfaceFieldValue massFlowAtFilter_88 write:
    sum(fz_solid_88) of phi = -1.88208e-05

volFieldValue volFieldValue_89 write:
    volIntegrate(cz_solid_89) of U = (-1.81408e-10 -2.22344e-09 1.87164e-09)

surfaceFieldValue massFlowAtFilter_89 write:
    sum(fz_solid_89) of phi = -1.9774e-05

volFieldValue volFieldValue_90 write:
    volIntegrate(cz_solid_90) of U = (5.61784e-10 -2.5221e-09 2.41007e-09)

surfaceFieldValue massFlowAtFilter_90 write:
    sum(fz_solid_90) of phi = 2.43018e-05

volFieldValue volFieldValue_91 write:
    volIntegrate(cz_solid_91) of U = (1.49827e-09 -2.94353e-09 2.72562e-09)

surfaceFieldValue massFlowAtFilter_91 write:
    sum(fz_solid_91) of phi = 6.8022e-06

volFieldValue volFieldValue_92 write:
    volIntegrate(cz_solid_92) of U = (3.02168e-09 -3.69326e-09 2.79488e-09)

surfaceFieldValue massFlowAtFilter_92 write:
    sum(fz_solid_92) of phi = 5.00822e-05

volFieldValue volFieldValue_93 write:
    volIntegrate(cz_solid_93) of U = (5.1086e-09 -5.16848e-09 2.5995e-09)

surfaceFieldValue massFlowAtFilter_93 write:
    sum(fz_solid_93) of phi = 5.53308e-05

volFieldValue volFieldValue_94 write:
    volIntegrate(cz_solid_94) of U = (8.46307e-09 -7.35008e-09 2.16698e-09)

surfaceFieldValue massFlowAtFilter_94 write:
    sum(fz_solid_94) of phi = 0.000121653

volFieldValue volFieldValue_95 write:
[...]

volFieldValue volFieldValue_23 write:
    volIntegrate(cz_solid_23) of U = (-8.66768e-10 -8.51176e-08 1.50284e-09)

surfaceFieldValue massFlowAtFilter_23 write:
    sum(fz_solid_23) of phi = -6.0523e-05

volFieldValue volFieldValue_24 write:
    volIntegrate(cz_solid_24) of U = (-7.40392e-10 -1.2887e-07 2.76502e-09)

surfaceFieldValue massFlowAtFilter_24 write:
    sum(fz_solid_24) of phi = -0.000370843

volFieldValue volFieldValue_25 write:
    volIntegrate(cz_solid_25) of U = (-1.28334e-10 -1.75397e-07 2.94159e-09)

surfaceFieldValue massFlowAtFilter_25 write:
    sum(fz_solid_25) of phi = -0.000419058

volFieldValue volFieldValue_26 write:
    volIntegrate(cz_solid_26) of U = (-1.60332e-10 -2.0437e-07 2.36944e-09)

surfaceFieldValue massFlowAtFilter_26 write:
    sum(fz_solid_26) of phi = 0.000295965

volFieldValue volFieldValue_27 write:
    volIntegrate(cz_solid_27) of U = (-9.54564e-10 -2.56262e-07 2.28009e-09)

surfaceFieldValue massFlowAtFilter_27 write:
    sum(fz_solid_27) of phi = 0.000482782

volFieldValue volFieldValue_28 write:
    volIntegrate(cz_solid_28) of U = (-6.41551e-10 -2.77567e-07 1.97949e-09)

surfaceFieldValue massFlowAtFilter_28 write:
    sum(fz_solid_28) of phi = 3.07489e-05

volFieldValue volFieldValue_29 write:
    volIntegrate(cz_solid_29) of U = (-5.63956e-10 -2.53115e-07 1.68954e-09)

surfaceFieldValue massFlowAtFilter_29 write:
    sum(fz_solid_29) of phi = 6.28425e-05

volFieldValue volFieldValue_30 write:
    volIntegrate(cz_solid_30) of U = (-2.75264e-10 -1.70615e-07 1.66511e-09)

surfaceFieldValue massFlowAtFilter_30 write:
    sum(fz_solid_30) of phi = 5.56175e-06

volFieldValue volFieldValue_31 write:
    volIntegrate(cz_solid_31) of U = (1.53799e-10 -9.01404e-08 1.68216e-09)

surfaceFieldValue massFlowAtFilter_31 write:
    sum(fz_solid_31) of phi = -1.63539e-05

volFieldValue volFieldValue_32 write:
    volIntegrate(cz_solid_32) of U = (5.16649e-10 -4.04575e-08 1.5179e-09)

surfaceFieldValue massFlowAtFilter_32 write:
    sum(fz_solid_32) of phi = -1.71145e-06

volFieldValue volFieldValue_33 write:
    volIntegrate(cz_solid_33) of U = (9.36176e-10 -4.71124e-09 1.10502e-09)

surfaceFieldValue massFlowAtFilter_33 write:
    sum(fz_solid_33) of phi = 4.72739e-06

volFieldValue volFieldValue_34 write:
    volIntegrate(cz_solid_34) of U = (1.14114e-09 2.38825e-08 6.03775e-10)

surfaceFieldValue massFlowAtFilter_34 write:
    sum(fz_solid_34) of phi = -2.16169e-05

volFieldValue volFieldValue_35 write:
    volIntegrate(cz_solid_35) of U = (1.06096e-09 4.17616e-08 1.27341e-10)

surfaceFieldValue massFlowAtFilter_35 write:
    sum(fz_solid_35) of phi = 1.84872e-05

volFieldValue volFieldValue_36 write:
    volIntegrate(cz_solid_36) of U = (8.47536e-10 5.05819e-08 -1.96702e-10)

surfaceFieldValue massFlowAtFilter_36 write:
    sum(fz_solid_36) of phi = -9.03508e-06

volFieldValue volFieldValue_37 write:
    volIntegrate(cz_solid_37) of U = (6.39132e-10 4.45985e-08 -3.88597e-10)

surfaceFieldValue massFlowAtFilter_37 write:
    sum(fz_solid_37) of phi = 3.32388e-05

volFieldValue volFieldValue_38 write:
    volIntegrate(cz_solid_38) of U = (3.72787e-10 2.8269e-08 -4.14032e-10)

surfaceFieldValue massFlowAtFilter_38 write:
    sum(fz_solid_38) of phi = -3.98875e-05

volFieldValue volFieldValue_39 write:
    volIntegrate(cz_solid_39) of U = (8.05563e-11 9.4501e-09 -1.4291e-10)

surfaceFieldValue massFlowAtFilter_39 write:
    sum(fz_solid_39) of phi = -6.31133e-05

volFieldValue volFieldValue_40 write:
    volIntegrate(cz_solid_40) of U = (-2.60289e-10 -6.68134e-09 8.87404e-10)

surfaceFieldValue massFlowAtFilter_40 write:
    sum(fz_solid_40) of phi = -6.54994e-05

volFieldValue volFieldValue_41 write:
    volIntegrate(cz_solid_41) of U = (-4.16227e-10 -2.9622e-08 6.22267e-10)

surfaceFieldValue massFlowAtFilter_41 write:
    sum(fz_solid_41) of phi = 0.000186088

volFieldValue volFieldValue_42 write:
    volIntegrate(cz_solid_42) of U = (-5.00551e-10 -5.27558e-08 1.30172e-09)

surfaceFieldValue massFlowAtFilter_42 write:
    sum(fz_solid_42) of phi = 4.31349e-05

volFieldValue volFieldValue_43 write:
    volIntegrate(cz_solid_43) of U = (-8.87175e-10 -8.94728e-08 2.38391e-09)

surfaceFieldValue massFlowAtFilter_43 write:
    sum(fz_solid_43) of phi = 0.000324074

volFieldValue volFieldValue_44 write:
    volIntegrate(cz_solid_44) of U = (-3.13058e-10 -1.42571e-07 4.52156e-09)

surfaceFieldValue massFlowAtFilter_44 write:
    sum(fz_solid_44) of phi = -0.000179606

volFieldValue volFieldValue_45 write:
    volIntegrate(cz_solid_45) of U = (1.23428e-09 -1.96296e-07 4.89636e-09)

surfaceFieldValue massFlowAtFilter_45 write:
    sum(fz_solid_45) of phi = -0.000232715

volFieldValue volFieldValue_46 write:
    volIntegrate(cz_solid_46) of U = (1.78922e-09 -2.41237e-07 3.92196e-09)

surfaceFieldValue massFlowAtFilter_46 write:
    sum(fz_solid_46) of phi = 0.00049526

volFieldValue volFieldValue_47 write:
    volIntegrate(cz_solid_47) of U = (2.24903e-10 -3.08504e-07 3.59152e-09)

surfaceFieldValue massFlowAtFilter_47 write:
    sum(fz_solid_47) of phi = 0.000653021

volFieldValue volFieldValue_48 write:
    volIntegrate(cz_solid_48) of U = (8.63905e-10 -3.44254e-07 2.94825e-09)

surfaceFieldValue massFlowAtFilter_48 write:
    sum(fz_solid_48) of phi = 5.39358e-06

volFieldValue volFieldValue_49 write:
    volIntegrate(cz_solid_49) of U = (3.78652e-10 -3.27822e-07 1.6854e-09)

surfaceFieldValue massFlowAtFilter_49 write:
    sum(fz_solid_49) of phi = -8.68168e-05

volFieldValue volFieldValue_50 write:
    volIntegrate(cz_solid_50) of U = (3.13527e-10 -2.39879e-07 5.84397e-10)

surfaceFieldValue massFlowAtFilter_50 write:
    sum(fz_solid_50) of phi = -7.15525e-05

volFieldValue volFieldValue_51 write:
    volIntegrate(cz_solid_51) of U = (4.70628e-10 -1.43257e-07 4.41955e-10)

surfaceFieldValue massFlowAtFilter_51 write:
    sum(fz_solid_51) of phi = -1.47535e-05

volFieldValue volFieldValue_52 write:
    volIntegrate(cz_solid_52) of U = (4.73159e-10 -9.02833e-08 6.9125e-10)

surfaceFieldValue massFlowAtFilter_52 write:
    sum(fz_solid_52) of phi = -5.22127e-05

volFieldValue volFieldValue_53 write:
    volIntegrate(cz_solid_53) of U = (5.77322e-10 -4.02774e-08 6.30678e-10)

surfaceFieldValue massFlowAtFilter_53 write:
    sum(fz_solid_53) of phi = -5.14128e-05

volFieldValue volFieldValue_54 write:
    volIntegrate(cz_solid_54) of U = (5.91961e-10 1.28999e-08 3.67855e-10)

surfaceFieldValue massFlowAtFilter_54 write:
    sum(fz_solid_54) of phi = -3.74948e-05

volFieldValue volFieldValue_55 write:
    volIntegrate(cz_solid_55) of U = (4.20911e-10 5.76209e-08 2.79998e-11)

surfaceFieldValue massFlowAtFilter_55 write:
    sum(fz_solid_55) of phi = -2.32764e-05

volFieldValue volFieldValue_56 write:
    volIntegrate(cz_solid_56) of U = (1.74767e-10 7.82678e-08 -2.31541e-10)

surfaceFieldValue massFlowAtFilter_56 write:
    sum(fz_solid_56) of phi = -3.22093e-05

volFieldValue volFieldValue_57 write:
    volIntegrate(cz_solid_57) of U = (-5.64221e-11 6.1509e-08 -2.4023e-10)

surfaceFieldValue massFlowAtFilter_57 write:
    sum(fz_solid_57) of phi = -1.45499e-05

volFieldValue volFieldValue_58 write:
    volIntegrate(cz_solid_58) of U = (-2.76692e-10 3.17596e-08 1.83553e-11)

surfaceFieldValue massFlowAtFilter_58 write:
    sum(fz_solid_58) of phi = -0.000112023

volFieldValue volFieldValue_59 write:
    volIntegrate(cz_solid_59) of U = (-3.31727e-10 7.55946e-09 5.07091e-10)

surfaceFieldValue massFlowAtFilter_59 write:
    sum(fz_solid_59) of phi = -2.99689e-05

volFieldValue volFieldValue_60 write:
    volIntegrate(cz_solid_60) of U = (-5.18964e-10 1.39193e-08 1.04504e-09)

surfaceFieldValue massFlowAtFilter_60 write:
    sum(fz_solid_60) of phi = -0.000182732

volFieldValue volFieldValue_61 write:
    volIntegrate(cz_solid_61) of U = (-6.91945e-10 -7.02028e-09 7.98271e-10)

surfaceFieldValue massFlowAtFilter_61 write:
    sum(fz_solid_61) of phi = -6.30496e-06

volFieldValue volFieldValue_62 write:
    volIntegrate(cz_solid_62) of U = (-8.34594e-10 -2.5159e-08 1.99688e-09)

surfaceFieldValue massFlowAtFilter_62 write:
    sum(fz_solid_62) of phi = 4.59757e-05

volFieldValue volFieldValue_63 write:
    volIntegrate(cz_solid_63) of U = (-1.35289e-09 -5.90978e-08 3.59091e-09)

surfaceFieldValue massFlowAtFilter_63 write:
    sum(fz_solid_63) of phi = 0.000220369

volFieldValue volFieldValue_64 write:
    volIntegrate(cz_solid_64) of U = (-3.35348e-10 -9.71796e-08 6.91929e-09)

surfaceFieldValue massFlowAtFilter_64 write:
    sum(fz_solid_64) of phi = -0.000227732

volFieldValue volFieldValue_65 write:
    volIntegrate(cz_solid_65) of U = (2.43909e-09 -1.33237e-07 7.6563e-09)

surfaceFieldValue massFlowAtFilter_65 write:
    sum(fz_solid_65) of phi = -0.000725696

volFieldValue volFieldValue_66 write:
    volIntegrate(cz_solid_66) of U = (4.34118e-09 -1.62299e-07 6.20485e-09)

surfaceFieldValue massFlowAtFilter_66 write:
    sum(fz_solid_66) of phi = 0.000470017

volFieldValue volFieldValue_67 write:
    volIntegrate(cz_solid_67) of U = (2.31973e-09 -2.0428e-07 5.04367e-09)

surfaceFieldValue massFlowAtFilter_67 write:
    sum(fz_solid_67) of phi = 0.000390353

volFieldValue volFieldValue_68 write:
    volIntegrate(cz_solid_68) of U = (3.90069e-09 -2.24446e-07 3.78289e-09)

surfaceFieldValue massFlowAtFilter_68 write:
    sum(fz_solid_68) of phi = -0.000536389

volFieldValue volFieldValue_69 write:
    volIntegrate(cz_solid_69) of U = (2.48353e-09 -2.12776e-07 1.12441e-09)

surfaceFieldValue massFlowAtFilter_69 write:
    sum(fz_solid_69) of phi = -0.00043624

volFieldValue volFieldValue_70 write:
    volIntegrate(cz_solid_70) of U = (1.60335e-09 -1.79512e-07 -4.80313e-10)

surfaceFieldValue massFlowAtFilter_70 write:
    sum(fz_solid_70) of phi = -0.000247604

volFieldValue volFieldValue_71 write:
    volIntegrate(cz_solid_71) of U = (9.81074e-10 -1.46904e-07 -8.34667e-10)

surfaceFieldValue massFlowAtFilter_71 write:
    sum(fz_solid_71) of phi = -5.81331e-06

volFieldValue volFieldValue_72 write:
    volIntegrate(cz_solid_72) of U = (1.4412e-10 -9.98296e-08 -6.47075e-10)

surfaceFieldValue massFlowAtFilter_72 write:
    sum(fz_solid_72) of phi = 5.232e-05

volFieldValue volFieldValue_73 write:
    volIntegrate(cz_solid_73) of U = (-4.86191e-10 -9.58611e-09 -6.75647e-10)

surfaceFieldValue massFlowAtFilter_73 write:
    sum(fz_solid_73) of phi = -6.57052e-05

volFieldValue volFieldValue_74 write:
    volIntegrate(cz_solid_74) of U = (-9.50555e-10 7.39796e-08 -5.9848e-10)

surfaceFieldValue massFlowAtFilter_74 write:
    sum(fz_solid_74) of phi = 0.000128781

volFieldValue volFieldValue_75 write:
    volIntegrate(cz_solid_75) of U = (-1.13587e-09 1.16977e-07 -6.70117e-10)

surfaceFieldValue massFlowAtFilter_75 write:
    sum(fz_solid_75) of phi = 5.98891e-05

volFieldValue volFieldValue_76 write:
    volIntegrate(cz_solid_76) of U = (-9.15699e-10 7.12466e-08 -6.27616e-10)

surfaceFieldValue massFlowAtFilter_76 write:
    sum(fz_solid_76) of phi = -2.36784e-05

volFieldValue volFieldValue_77 write:
    volIntegrate(cz_solid_77) of U = (-6.46869e-10 5.4851e-08 -1.85467e-10)

surfaceFieldValue massFlowAtFilter_77 write:
    sum(fz_solid_77) of phi = -7.12554e-06

volFieldValue volFieldValue_78 write:
    volIntegrate(cz_solid_78) of U = (-6.24603e-10 6.24069e-08 1.63569e-10)

surfaceFieldValue massFlowAtFilter_78 write:
    sum(fz_solid_78) of phi = -0.000195087

volFieldValue volFieldValue_79 write:
    volIntegrate(cz_solid_79) of U = (-6.68149e-10 3.28531e-08 6.57974e-10)

surfaceFieldValue massFlowAtFilter_79 write:
    sum(fz_solid_79) of phi = -4.01192e-05

volFieldValue volFieldValue_80 write:
    volIntegrate(cz_solid_80) of U = (-6.68968e-10 -6.76965e-09 6.53725e-10)

surfaceFieldValue massFlowAtFilter_80 write:
    sum(fz_solid_80) of phi = -0.000111537

volFieldValue volFieldValue_81 write:
    volIntegrate(cz_solid_81) of U = (-1.00695e-09 -2.38427e-08 6.40612e-10)

surfaceFieldValue massFlowAtFilter_81 write:
    sum(fz_solid_81) of phi = -6.46226e-05

volFieldValue volFieldValue_82 write:
    volIntegrate(cz_solid_82) of U = (-1.46962e-09 -3.25211e-08 2.21249e-09)

surfaceFieldValue massFlowAtFilter_82 write:
    sum(fz_solid_82) of phi = 7.96163e-05

volFieldValue volFieldValue_83 write:
    volIntegrate(cz_solid_83) of U = (-2.12737e-09 -3.50881e-08 4.28039e-09)

surfaceFieldValue massFlowAtFilter_83 write:
    sum(fz_solid_83) of phi = -5.7891e-05

volFieldValue volFieldValue_84 write:
    volIntegrate(cz_solid_84) of U = (-9.3625e-10 -3.62427e-08 8.74309e-09)

surfaceFieldValue massFlowAtFilter_84 write:
    sum(fz_solid_84) of phi = 0.000381205

volFieldValue volFieldValue_85 write:
    volIntegrate(cz_solid_85) of U = (3.04632e-09 -3.11246e-08 9.86847e-09)

surfaceFieldValue massFlowAtFilter_85 write:
    sum(fz_solid_85) of phi = -0.000971449

volFieldValue volFieldValue_86 write:
    volIntegrate(cz_solid_86) of U = (5.98396e-09 -2.76703e-08 7.94292e-09)

surfaceFieldValue massFlowAtFilter_86 write:
    sum(fz_solid_86) of phi = -0.00023794

volFieldValue volFieldValue_87 write:
    volIntegrate(cz_solid_87) of U = (4.7328e-09 1.94633e-08 6.17974e-09)

surfaceFieldValue massFlowAtFilter_87 write:
    sum(fz_solid_87) of phi = 0.000762988

volFieldValue volFieldValue_88 write:
    volIntegrate(cz_solid_88) of U = (7.93921e-09 2.07254e-08 4.89585e-09)

surfaceFieldValue massFlowAtFilter_88 write:
    sum(fz_solid_88) of phi = -0.00139887

volFieldValue volFieldValue_89 write:
    volIntegrate(cz_solid_89) of U = (6.08231e-09 1.37157e-08 -1.0312e-10)

surfaceFieldValue massFlowAtFilter_89 write:
    sum(fz_solid_89) of phi = -0.000842225

volFieldValue volFieldValue_90 write:
    volIntegrate(cz_solid_90) of U = (3.01127e-09 -1.68808e-08 -2.06159e-09)

surfaceFieldValue massFlowAtFilter_90 write:
    sum(fz_solid_90) of phi = -0.000457766

volFieldValue volFieldValue_91 write:
    volIntegrate(cz_solid_91) of U = (1.61177e-09 -6.70616e-08 -1.2649e-09)

surfaceFieldValue massFlowAtFilter_91 write:
    sum(fz_solid_91) of phi = 0.000166512

volFieldValue volFieldValue_92 write:
    volIntegrate(cz_solid_92) of U = (9.68829e-10 -8.34615e-08 -1.42934e-09)

surfaceFieldValue massFlowAtFilter_92 write:
    sum(fz_solid_92) of phi = 0.000150455

volFieldValue volFieldValue_93 write:
    volIntegrate(cz_solid_93) of U = (-4.79766e-10 -7.24195e-08 -2.41278e-09)

surfaceFieldValue massFlowAtFilter_93 write:
    sum(fz_solid_93) of phi = 6.53219e-05

volFieldValue volFieldValue_94 write:
    volIntegrate(cz_solid_94) of U = (-2.8187e-09 -1.65019e-08 -1.59932e-09)

surfaceFieldValue massFlowAtFilter_94 write:
    sum(fz_solid_94) of phi = 0.000697561

volFieldValue volFieldValue_95 write:
    volIntegrate(cz_solid_95) of U = (-2.27713e-09 3.49232e-08 -1.08558e-09)

surfaceFieldValue massFlowAtFilter_95 write:
    sum(fz_solid_95) of phi = -0.000113398

volFieldValue volFieldValue_96 write:
    volIntegrate(cz_solid_96) of U = (-1.35347e-09 5.21052e-08 -9.92809e-10)

surfaceFieldValue massFlowAtFilter_96 write:
    sum(fz_solid_96) of phi = -8.21248e-06

volFieldValue volFieldValue_97 write:
    volIntegrate(cz_solid_97) of U = (-8.12322e-10 5.5727e-08 -8.26794e-11)

surfaceFieldValue massFlowAtFilter_97 write:
    sum(fz_solid_97) of phi = 0.000230202

volFieldValue volFieldValue_98 write:
    volIntegrate(cz_solid_98) of U = (-6.83158e-10 3.61896e-08 2.5258e-10)

surfaceFieldValue massFlowAtFilter_98 write:
    sum(fz_solid_98) of phi = -0.000223334

volFieldValue volFieldValue_99 write:
    volIntegrate(cz_solid_99) of U = (-6.70524e-10 1.91955e-08 4.73689e-10)

surfaceFieldValue massFlowAtFilter_99 write:
    sum(fz_solid_99) of phi = 0.000250094

Time = 841

DILUPBiCG:  Solving for Ux, Initial residual = 1.76074e-07, Final residual = 1.76074e-07, No Iterations 0
DILUPBiCG:  Solving for Uy, Initial residual = 1.18435e-07, Final residual = 1.18435e-07, No Iterations 0
DILUPBiCG:  Solving for Uz, Initial residual = 1.44065e-07, Final residual = 1.44065e-07, No Iterations 0
DICPCG:  Solving for p, Initial residual = 0.00100497, Final residual = 9.51929e-05, No Iterations 15
DICPCG:  Solving for p, Initial residual = 0.000232881, Final residual = 2.2928e-05, No Iterations 70
DICPCG:  Solving for p, Initial residual = 5.9017e-05, Final residual = 9.12841e-06, No Iterations 26
time step continuity errors : sum local = 7.64626e-05, global = -2.70169e-06, cumulative = 0.000643178
DILUPBiCG:  Solving for epsilon, Initial residual = 0.000548742, Final residual = 4.17994e-06, No Iterations 2
bounding epsilon, min: -0.000551433 max: 11630.4 average: 40.1367
DILUPBiCG:  Solving for k, Initial residual = 0.000747141, Final residual = 5.60508e-07, No Iterations 3
ExecutionTime = 1910.76 s  ClockTime = 1974 s

Time = 842

DILUPBiCG:  Solving for Ux, Initial residual = 1.75961e-07, Final residual = 1.75961e-07, No Iterations 0
DILUPBiCG:  Solving for Uy, Initial residual = 1.18477e-07, Final residual = 1.18477e-07, No Iterations 0
DILUPBiCG:  Solving for Uz, Initial residual = 1.44024e-07, Final residual = 1.44024e-07, No Iterations 0
DICPCG:  Solving for p, Initial residual = 0.00100074, Final residual = 9.52432e-05, No Iterations 15
DICPCG:  Solving for p, Initial residual = 0.000232521, Final residual = 2.24027e-05, No Iterations 71
DICPCG:  Solving for p, Initial residual = 5.86406e-05, Final residual = 9.40048e-06, No Iterations 26
time step continuity errors : sum local = 7.87844e-05, global = -8.70708e-06, cumulative = 0.000634471
DILUPBiCG:  Solving for epsilon, Initial residual = 0.000549054, Final residual = 4.18694e-06, No Iterations 2
bounding epsilon, min: -0.000382651 max: 11630.4 average: 40.1228
DILUPBiCG:  Solving for k, Initial residual = 0.000747248, Final residual = 5.59296e-07, No Iterations 3
ExecutionTime = 1912.75 s  ClockTime = 1976 s

Time = 843

DILUPBiCG:  Solving for Ux, Initial residual = 1.75849e-07, Final residual = 1.75849e-07, No Iterations 0
DILUPBiCG:  Solving for Uy, Initial residual = 1.18521e-07, Final residual = 1.18521e-07, No Iterations 0
DILUPBiCG:  Solving for Uz, Initial residual = 1.43984e-07, Final residual = 1.43984e-07, No Iterations 0
DICPCG:  Solving for p, Initial residual = 0.00100682, Final residual = 9.44957e-05, No Iterations 15
DICPCG:  Solving for p, Initial residual = 0.000233033, Final residual = 2.31034e-05, No Iterations 71
DICPCG:  Solving for p, Initial residual = 5.94561e-05, Final residual = 9.79447e-06, No Iterations 28
time step continuity errors : sum local = 8.21274e-05, global = -1.49625e-05, cumulative = 0.000619508
DILUPBiCG:  Solving for epsilon, Initial residual = 0.000549338, Final residual = 4.19704e-06, No Iterations 2
DILUPBiCG:  Solving for k, Initial residual = 0.000747357, Final residual = 5.58262e-07, No Iterations 3
ExecutionTime = 1914.77 s  ClockTime = 1978 s

Time = 844

DILUPBiCG:  Solving for Ux, Initial residual = 1.75732e-07, Final residual = 1.75732e-07, No Iterations 0
DILUPBiCG:  Solving for Uy, Initial residual = 1.18564e-07, Final residual = 1.18564e-07, No Iterations 0
DILUPBiCG:  Solving for Uz, Initial residual = 1.43937e-07, Final residual = 1.43937e-07, No Iterations 0
DICPCG:  Solving for p, Initial residual = 0.000998266, Final residual = 9.58199e-05, No Iterations 15
DICPCG:  Solving for p, Initial residual = 0.000232113, Final residual = 2.24261e-05, No Iterations 84
DICPCG:  Solving for p, Initial residual = 5.77161e-05, Final residual = 9.61783e-06, No Iterations 12
time step continuity errors : sum local = 8.06938e-05, global = -2.37044e-05, cumulative = 0.000595804
DILUPBiCG:  Solving for epsilon, Initial residual = 0.000549547, Final residual = 4.18606e-06, No Iterations 2
bounding epsilon, min: -0.00120902 max: 11630.4 average: 40.0958
DILUPBiCG:  Solving for k, Initial residual = 0.000747468, Final residual = 5.57057e-07, No Iterations 3
ExecutionTime = 1916.77 s  ClockTime = 1980 s


SIMPLE solution converged in 844 iterations

End

Finalising parallel run
