/*---------------------------------------------------------------------------*\
  =========                 |
  \\      /  F ield         | OpenFOAM: The Open Source CFD Toolbox
   \\    /   O peration     | Website:  https://openfoam.org
    \\  /    A nd           | Version:  6
     \\/     M anipulation  |
\*---------------------------------------------------------------------------*/
Build  : 6
Exec   : surfaceTransformPoints -scale (0.001 0.001 0.001) constant/triSurface/filter.stl constant/triSurface/filter.stl
Date   : Aug 06 2020
Time   : 14:46:32
Host   : "emps-ugmat1"
PID    : 28377
I/O    : uncollated
Case   : /home/links/jjw230/Optimisation_second_draft/Default
nProcs : 1
sigFpe : Enabling floating point exception trapping (FOAM_SIGFPE).
fileModificationChecking : Monitoring run-time modified files using timeStampMaster (fileModificationSkew 10)
allowSystemOperations : Allowing user-supplied system call operations

// * * * * * * * * * * * * * * * * * * * * * * * * * * * * * * * * * * * * * //
Reading surf from "constant/triSurface/filter.stl" ...
Writing surf to "constant/triSurface/filter.stl" ...
Scaling points by (0.001 0.001 0.001)
End

/*---------------------------------------------------------------------------*\
  =========                 |
  \\      /  F ield         | OpenFOAM: The Open Source CFD Toolbox
   \\    /   O peration     | Website:  https://openfoam.org
    \\  /    A nd           | Version:  6
     \\/     M anipulation  |
\*---------------------------------------------------------------------------*/
Build  : 6
Exec   : surfaceTransformPoints -scale (0.001 0.001 0.001) constant/triSurface/chamber.stl constant/triSurface/chamber.stl
Date   : Aug 06 2020
Time   : 14:46:32
Host   : "emps-ugmat1"
PID    : 28379
I/O    : uncollated
Case   : /home/links/jjw230/Optimisation_second_draft/Default
nProcs : 1
sigFpe : Enabling floating point exception trapping (FOAM_SIGFPE).
fileModificationChecking : Monitoring run-time modified files using timeStampMaster (fileModificationSkew 10)
allowSystemOperations : Allowing user-supplied system call operations

// * * * * * * * * * * * * * * * * * * * * * * * * * * * * * * * * * * * * * //
Reading surf from "constant/triSurface/chamber.stl" ...
Writing surf to "constant/triSurface/chamber.stl" ...
Scaling points by (0.001 0.001 0.001)
End

/*---------------------------------------------------------------------------*\
  =========                 |
  \\      /  F ield         | OpenFOAM: The Open Source CFD Toolbox
   \\    /   O peration     | Website:  https://openfoam.org
    \\  /    A nd           | Version:  6
     \\/     M anipulation  |
\*---------------------------------------------------------------------------*/
Build  : 6
Exec   : surfaceTransformPoints -translate ( 0.46866777739064736 0.02 1.0041990194254402 ) constant/triSurface/filter.stl constant/triSurface/filter_0.stl
Date   : Aug 06 2020
Time   : 14:46:32
Host   : "emps-ugmat1"
PID    : 28390
I/O    : uncollated
Case   : /home/links/jjw230/Optimisation_second_draft/Default
nProcs : 1
sigFpe : Enabling floating point exception trapping (FOAM_SIGFPE).
fileModificationChecking : Monitoring run-time modified files using timeStampMaster (fileModificationSkew 10)
allowSystemOperations : Allowing user-supplied system call operations

// * * * * * * * * * * * * * * * * * * * * * * * * * * * * * * * * * * * * * //
Reading surf from "constant/triSurface/filter.stl" ...
Writing surf to "constant/triSurface/filter_0.stl" ...
Translating points by (0.468668 0.02 1.0042)
End

/*---------------------------------------------------------------------------*\
  =========                 |
  \\      /  F ield         | OpenFOAM: The Open Source CFD Toolbox
   \\    /   O peration     | Website:  https://openfoam.org
    \\  /    A nd           | Version:  6
     \\/     M anipulation  |
\*---------------------------------------------------------------------------*/
Build  : 6
Exec   : surfaceTransformPoints -translate ( 0.6 0.02 1.025 ) constant/triSurface/filter.stl constant/triSurface/filter_1.stl
Date   : Aug 06 2020
Time   : 14:46:32
Host   : "emps-ugmat1"
PID    : 28391
I/O    : uncollated
Case   : /home/links/jjw230/Optimisation_second_draft/Default
nProcs : 1
sigFpe : Enabling floating point exception trapping (FOAM_SIGFPE).
fileModificationChecking : Monitoring run-time modified files using timeStampMaster (fileModificationSkew 10)
allowSystemOperations : Allowing user-supplied system call operations

// * * * * * * * * * * * * * * * * * * * * * * * * * * * * * * * * * * * * * //
Reading surf from "constant/triSurface/filter.stl" ...
Writing surf to "constant/triSurface/filter_1.stl" ...
Translating points by (0.6 0.02 1.025)
End

/*---------------------------------------------------------------------------*\
  =========                 |
  \\      /  F ield         | OpenFOAM: The Open Source CFD Toolbox
   \\    /   O peration     | Website:  https://openfoam.org
    \\  /    A nd           | Version:  6
     \\/     M anipulation  |
\*---------------------------------------------------------------------------*/
Build  : 6
Exec   : surfaceTransformPoints -translate ( 0.7313322226093526 0.02 1.0041990194254402 ) constant/triSurface/filter.stl constant/triSurface/filter_2.stl
Date   : Aug 06 2020
Time   : 14:46:33
Host   : "emps-ugmat1"
PID    : 28395
I/O    : uncollated
Case   : /home/links/jjw230/Optimisation_second_draft/Default
nProcs : 1
sigFpe : Enabling floating point exception trapping (FOAM_SIGFPE).
fileModificationChecking : Monitoring run-time modified files using timeStampMaster (fileModificationSkew 10)
allowSystemOperations : Allowing user-supplied system call operations

// * * * * * * * * * * * * * * * * * * * * * * * * * * * * * * * * * * * * * //
Reading surf from "constant/triSurface/filter.stl" ...
Writing surf to "constant/triSurface/filter_2.stl" ...
Translating points by (0.731332 0.02 1.0042)
End

/*---------------------------------------------------------------------------*\
  =========                 |
  \\      /  F ield         | OpenFOAM: The Open Source CFD Toolbox
   \\    /   O peration     | Website:  https://openfoam.org
    \\  /    A nd           | Version:  6
     \\/     M anipulation  |
\*---------------------------------------------------------------------------*/
Build  : 6
Exec   : surfaceTransformPoints -translate ( 0.8498087322243011 0.02 0.9438322226093526 ) constant/triSurface/filter.stl constant/triSurface/filter_3.stl
Date   : Aug 06 2020
Time   : 14:46:33
Host   : "emps-ugmat1"
PID    : 28396
I/O    : uncollated
Case   : /home/links/jjw230/Optimisation_second_draft/Default
nProcs : 1
sigFpe : Enabling floating point exception trapping (FOAM_SIGFPE).
fileModificationChecking : Monitoring run-time modified files using timeStampMaster (fileModificationSkew 10)
allowSystemOperations : Allowing user-supplied system call operations

// * * * * * * * * * * * * * * * * * * * * * * * * * * * * * * * * * * * * * //
Reading surf from "constant/triSurface/filter.stl" ...
Writing surf to "constant/triSurface/filter_3.stl" ...
Translating points by (0.849809 0.02 0.943832)
End

/*---------------------------------------------------------------------------*\
  =========                 |
  \\      /  F ield         | OpenFOAM: The Open Source CFD Toolbox
   \\    /   O peration     | Website:  https://openfoam.org
    \\  /    A nd           | Version:  6
     \\/     M anipulation  |
\*---------------------------------------------------------------------------*/
Build  : 6
Exec   : surfaceTransformPoints -translate ( 0.9438322226093526 0.02 0.8498087322243011 ) constant/triSurface/filter.stl constant/triSurface/filter_4.stl
Date   : Aug 06 2020
Time   : 14:46:33
Host   : "emps-ugmat1"
PID    : 28397
I/O    : uncollated
Case   : /home/links/jjw230/Optimisation_second_draft/Default
nProcs : 1
sigFpe : Enabling floating point exception trapping (FOAM_SIGFPE).
fileModificationChecking : Monitoring run-time modified files using timeStampMaster (fileModificationSkew 10)
allowSystemOperations : Allowing user-supplied system call operations

// * * * * * * * * * * * * * * * * * * * * * * * * * * * * * * * * * * * * * //
Reading surf from "constant/triSurface/filter.stl" ...
Writing surf to "constant/triSurface/filter_4.stl" ...
Translating points by (0.943832 0.02 0.849809)
End

/*---------------------------------------------------------------------------*\
  =========                 |
  \\      /  F ield         | OpenFOAM: The Open Source CFD Toolbox
   \\    /   O peration     | Website:  https://openfoam.org
    \\  /    A nd           | Version:  6
     \\/     M anipulation  |
\*---------------------------------------------------------------------------*/
Build  : 6
Exec   : surfaceTransformPoints -translate ( 1.0041990194254402 0.02 0.7313322226093526 ) constant/triSurface/filter.stl constant/triSurface/filter_5.stl
Date   : Aug 06 2020
Time   : 14:46:33
Host   : "emps-ugmat1"
PID    : 28398
I/O    : uncollated
Case   : /home/links/jjw230/Optimisation_second_draft/Default
nProcs : 1
sigFpe : Enabling floating point exception trapping (FOAM_SIGFPE).
fileModificationChecking : Monitoring run-time modified files using timeStampMaster (fileModificationSkew 10)
allowSystemOperations : Allowing user-supplied system call operations

// * * * * * * * * * * * * * * * * * * * * * * * * * * * * * * * * * * * * * //
Reading surf from "constant/triSurface/filter.stl" ...
Writing surf to "constant/triSurface/filter_5.stl" ...
Translating points by (1.0042 0.02 0.731332)
End

/*---------------------------------------------------------------------------*\
  =========                 |
  \\      /  F ield         | OpenFOAM: The Open Source CFD Toolbox
   \\    /   O peration     | Website:  https://openfoam.org
    \\  /    A nd           | Version:  6
     \\/     M anipulation  |
\*---------------------------------------------------------------------------*/
Build  : 6
Exec   : surfaceTransformPoints -translate ( 1.025 0.02 0.6 ) constant/triSurface/filter.stl constant/triSurface/filter_6.stl
Date   : Aug 06 2020
Time   : 14:46:33
Host   : "emps-ugmat1"
PID    : 28399
I/O    : uncollated
Case   : /home/links/jjw230/Optimisation_second_draft/Default
nProcs : 1
sigFpe : Enabling floating point exception trapping (FOAM_SIGFPE).
fileModificationChecking : Monitoring run-time modified files using timeStampMaster (fileModificationSkew 10)
allowSystemOperations : Allowing user-supplied system call operations

// * * * * * * * * * * * * * * * * * * * * * * * * * * * * * * * * * * * * * //
Reading surf from "constant/triSurface/filter.stl" ...
Writing surf to "constant/triSurface/filter_6.stl" ...
Translating points by (1.025 0.02 0.6)
End

/*---------------------------------------------------------------------------*\
  =========                 |
  \\      /  F ield         | OpenFOAM: The Open Source CFD Toolbox
   \\    /   O peration     | Website:  https://openfoam.org
    \\  /    A nd           | Version:  6
     \\/     M anipulation  |
\*---------------------------------------------------------------------------*/
Build  : 6
Exec   : surfaceTransformPoints -translate ( 1.0041990194254402 0.02 0.46866777739064736 ) constant/triSurface/filter.stl constant/triSurface/filter_7.stl
Date   : Aug 06 2020
Time   : 14:46:33
Host   : "emps-ugmat1"
PID    : 28400
I/O    : uncollated
Case   : /home/links/jjw230/Optimisation_second_draft/Default
nProcs : 1
sigFpe : Enabling floating point exception trapping (FOAM_SIGFPE).
fileModificationChecking : Monitoring run-time modified files using timeStampMaster (fileModificationSkew 10)
allowSystemOperations : Allowing user-supplied system call operations

// * * * * * * * * * * * * * * * * * * * * * * * * * * * * * * * * * * * * * //
Reading surf from "constant/triSurface/filter.stl" ...
Writing surf to "constant/triSurface/filter_7.stl" ...
Translating points by (1.0042 0.02 0.468668)
End

/*---------------------------------------------------------------------------*\
  =========                 |
  \\      /  F ield         | OpenFOAM: The Open Source CFD Toolbox
   \\    /   O peration     | Website:  https://openfoam.org
    \\  /    A nd           | Version:  6
     \\/     M anipulation  |
\*---------------------------------------------------------------------------*/
Build  : 6
Exec   : surfaceTransformPoints -translate ( 0.9438322226093526 0.02 0.350191267775699 ) constant/triSurface/filter.stl constant/triSurface/filter_8.stl
Date   : Aug 06 2020
Time   : 14:46:33
Host   : "emps-ugmat1"
PID    : 28401
I/O    : uncollated
Case   : /home/links/jjw230/Optimisation_second_draft/Default
nProcs : 1
sigFpe : Enabling floating point exception trapping (FOAM_SIGFPE).
fileModificationChecking : Monitoring run-time modified files using timeStampMaster (fileModificationSkew 10)
allowSystemOperations : Allowing user-supplied system call operations

// * * * * * * * * * * * * * * * * * * * * * * * * * * * * * * * * * * * * * //
Reading surf from "constant/triSurface/filter.stl" ...
Writing surf to "constant/triSurface/filter_8.stl" ...
Translating points by (0.943832 0.02 0.350191)
End

/*---------------------------------------------------------------------------*\
  =========                 |
  \\      /  F ield         | OpenFOAM: The Open Source CFD Toolbox
   \\    /   O peration     | Website:  https://openfoam.org
    \\  /    A nd           | Version:  6
     \\/     M anipulation  |
\*---------------------------------------------------------------------------*/
Build  : 6
Exec   : surfaceTransformPoints -translate ( 0.8498087322243011 0.02 0.2561677773906474 ) constant/triSurface/filter.stl constant/triSurface/filter_9.stl
Date   : Aug 06 2020
Time   : 14:46:33
Host   : "emps-ugmat1"
PID    : 28402
I/O    : uncollated
Case   : /home/links/jjw230/Optimisation_second_draft/Default
nProcs : 1
sigFpe : Enabling floating point exception trapping (FOAM_SIGFPE).
fileModificationChecking : Monitoring run-time modified files using timeStampMaster (fileModificationSkew 10)
allowSystemOperations : Allowing user-supplied system call operations

// * * * * * * * * * * * * * * * * * * * * * * * * * * * * * * * * * * * * * //
Reading surf from "constant/triSurface/filter.stl" ...
Writing surf to "constant/triSurface/filter_9.stl" ...
Translating points by (0.849809 0.02 0.256168)
End

/*---------------------------------------------------------------------------*\
  =========                 |
  \\      /  F ield         | OpenFOAM: The Open Source CFD Toolbox
   \\    /   O peration     | Website:  https://openfoam.org
    \\  /    A nd           | Version:  6
     \\/     M anipulation  |
\*---------------------------------------------------------------------------*/
Build  : 6
Exec   : surfaceTransformPoints -translate ( 0.7313322226093526 0.02 0.19580098057455975 ) constant/triSurface/filter.stl constant/triSurface/filter_10.stl
Date   : Aug 06 2020
Time   : 14:46:33
Host   : "emps-ugmat1"
PID    : 28403
I/O    : uncollated
Case   : /home/links/jjw230/Optimisation_second_draft/Default
nProcs : 1
sigFpe : Enabling floating point exception trapping (FOAM_SIGFPE).
fileModificationChecking : Monitoring run-time modified files using timeStampMaster (fileModificationSkew 10)
allowSystemOperations : Allowing user-supplied system call operations

// * * * * * * * * * * * * * * * * * * * * * * * * * * * * * * * * * * * * * //
Reading surf from "constant/triSurface/filter.stl" ...
Writing surf to "constant/triSurface/filter_10.stl" ...
Translating points by (0.731332 0.02 0.195801)
End

/*---------------------------------------------------------------------------*\
  =========                 |
  \\      /  F ield         | OpenFOAM: The Open Source CFD Toolbox
   \\    /   O peration     | Website:  https://openfoam.org
    \\  /    A nd           | Version:  6
     \\/     M anipulation  |
\*---------------------------------------------------------------------------*/
Build  : 6
Exec   : surfaceTransformPoints -translate ( 0.6 0.02 0.175 ) constant/triSurface/filter.stl constant/triSurface/filter_11.stl
Date   : Aug 06 2020
Time   : 14:46:33
Host   : "emps-ugmat1"
PID    : 28404
I/O    : uncollated
Case   : /home/links/jjw230/Optimisation_second_draft/Default
nProcs : 1
sigFpe : Enabling floating point exception trapping (FOAM_SIGFPE).
fileModificationChecking : Monitoring run-time modified files using timeStampMaster (fileModificationSkew 10)
allowSystemOperations : Allowing user-supplied system call operations

// * * * * * * * * * * * * * * * * * * * * * * * * * * * * * * * * * * * * * //
Reading surf from "constant/triSurface/filter.stl" ...
Writing surf to "constant/triSurface/filter_11.stl" ...
Translating points by (0.6 0.02 0.175)
End

/*---------------------------------------------------------------------------*\
  =========                 |
  \\      /  F ield         | OpenFOAM: The Open Source CFD Toolbox
   \\    /   O peration     | Website:  https://openfoam.org
    \\  /    A nd           | Version:  6
     \\/     M anipulation  |
\*---------------------------------------------------------------------------*/
Build  : 6
Exec   : surfaceTransformPoints -translate ( 0.46866777739064736 0.02 0.1958009805745597 ) constant/triSurface/filter.stl constant/triSurface/filter_12.stl
Date   : Aug 06 2020
Time   : 14:46:33
Host   : "emps-ugmat1"
PID    : 28405
I/O    : uncollated
Case   : /home/links/jjw230/Optimisation_second_draft/Default
nProcs : 1
sigFpe : Enabling floating point exception trapping (FOAM_SIGFPE).
fileModificationChecking : Monitoring run-time modified files using timeStampMaster (fileModificationSkew 10)
allowSystemOperations : Allowing user-supplied system call operations

// * * * * * * * * * * * * * * * * * * * * * * * * * * * * * * * * * * * * * //
Reading surf from "constant/triSurface/filter.stl" ...
Writing surf to "constant/triSurface/filter_12.stl" ...
Translating points by (0.468668 0.02 0.195801)
End

/*---------------------------------------------------------------------------*\
  =========                 |
  \\      /  F ield         | OpenFOAM: The Open Source CFD Toolbox
   \\    /   O peration     | Website:  https://openfoam.org
    \\  /    A nd           | Version:  6
     \\/     M anipulation  |
\*---------------------------------------------------------------------------*/
Build  : 6
Exec   : surfaceTransformPoints -translate ( 0.350191267775699 0.02 0.2561677773906473 ) constant/triSurface/filter.stl constant/triSurface/filter_13.stl
Date   : Aug 06 2020
Time   : 14:46:33
Host   : "emps-ugmat1"
PID    : 28406
I/O    : uncollated
Case   : /home/links/jjw230/Optimisation_second_draft/Default
nProcs : 1
sigFpe : Enabling floating point exception trapping (FOAM_SIGFPE).
fileModificationChecking : Monitoring run-time modified files using timeStampMaster (fileModificationSkew 10)
allowSystemOperations : Allowing user-supplied system call operations

// * * * * * * * * * * * * * * * * * * * * * * * * * * * * * * * * * * * * * //
Reading surf from "constant/triSurface/filter.stl" ...
Writing surf to "constant/triSurface/filter_13.stl" ...
Translating points by (0.350191 0.02 0.256168)
End

/*---------------------------------------------------------------------------*\
  =========                 |
  \\      /  F ield         | OpenFOAM: The Open Source CFD Toolbox
   \\    /   O peration     | Website:  https://openfoam.org
    \\  /    A nd           | Version:  6
     \\/     M anipulation  |
\*---------------------------------------------------------------------------*/
Build  : 6
Exec   : surfaceTransformPoints -translate ( 0.2561677773906474 0.02 0.35019126777569887 ) constant/triSurface/filter.stl constant/triSurface/filter_14.stl
Date   : Aug 06 2020
Time   : 14:46:33
Host   : "emps-ugmat1"
PID    : 28407
I/O    : uncollated
Case   : /home/links/jjw230/Optimisation_second_draft/Default
nProcs : 1
sigFpe : Enabling floating point exception trapping (FOAM_SIGFPE).
fileModificationChecking : Monitoring run-time modified files using timeStampMaster (fileModificationSkew 10)
allowSystemOperations : Allowing user-supplied system call operations

// * * * * * * * * * * * * * * * * * * * * * * * * * * * * * * * * * * * * * //
Reading surf from "constant/triSurface/filter.stl" ...
Writing surf to "constant/triSurface/filter_14.stl" ...
Translating points by (0.256168 0.02 0.350191)
End

/*---------------------------------------------------------------------------*\
  =========                 |
  \\      /  F ield         | OpenFOAM: The Open Source CFD Toolbox
   \\    /   O peration     | Website:  https://openfoam.org
    \\  /    A nd           | Version:  6
     \\/     M anipulation  |
\*---------------------------------------------------------------------------*/
Build  : 6
Exec   : surfaceTransformPoints -translate ( 0.19580098057455975 0.02 0.46866777739064724 ) constant/triSurface/filter.stl constant/triSurface/filter_15.stl
Date   : Aug 06 2020
Time   : 14:46:33
Host   : "emps-ugmat1"
PID    : 28408
I/O    : uncollated
Case   : /home/links/jjw230/Optimisation_second_draft/Default
nProcs : 1
sigFpe : Enabling floating point exception trapping (FOAM_SIGFPE).
fileModificationChecking : Monitoring run-time modified files using timeStampMaster (fileModificationSkew 10)
allowSystemOperations : Allowing user-supplied system call operations

// * * * * * * * * * * * * * * * * * * * * * * * * * * * * * * * * * * * * * //
Reading surf from "constant/triSurface/filter.stl" ...
Writing surf to "constant/triSurface/filter_15.stl" ...
Translating points by (0.195801 0.02 0.468668)
End

/*---------------------------------------------------------------------------*\
  =========                 |
  \\      /  F ield         | OpenFOAM: The Open Source CFD Toolbox
   \\    /   O peration     | Website:  https://openfoam.org
    \\  /    A nd           | Version:  6
     \\/     M anipulation  |
\*---------------------------------------------------------------------------*/
Build  : 6
Exec   : surfaceTransformPoints -translate ( 0.175 0.02 0.5999999999999999 ) constant/triSurface/filter.stl constant/triSurface/filter_16.stl
Date   : Aug 06 2020
Time   : 14:46:33
Host   : "emps-ugmat1"
PID    : 28409
I/O    : uncollated
Case   : /home/links/jjw230/Optimisation_second_draft/Default
nProcs : 1
sigFpe : Enabling floating point exception trapping (FOAM_SIGFPE).
fileModificationChecking : Monitoring run-time modified files using timeStampMaster (fileModificationSkew 10)
allowSystemOperations : Allowing user-supplied system call operations

// * * * * * * * * * * * * * * * * * * * * * * * * * * * * * * * * * * * * * //
Reading surf from "constant/triSurface/filter.stl" ...
Writing surf to "constant/triSurface/filter_16.stl" ...
Translating points by (0.175 0.02 0.6)
End

/*---------------------------------------------------------------------------*\
  =========                 |
  \\      /  F ield         | OpenFOAM: The Open Source CFD Toolbox
   \\    /   O peration     | Website:  https://openfoam.org
    \\  /    A nd           | Version:  6
     \\/     M anipulation  |
\*---------------------------------------------------------------------------*/
Build  : 6
Exec   : surfaceTransformPoints -translate ( 0.1958009805745597 0.02 0.7313322226093526 ) constant/triSurface/filter.stl constant/triSurface/filter_17.stl
Date   : Aug 06 2020
Time   : 14:46:33
Host   : "emps-ugmat1"
PID    : 28410
I/O    : uncollated
Case   : /home/links/jjw230/Optimisation_second_draft/Default
nProcs : 1
sigFpe : Enabling floating point exception trapping (FOAM_SIGFPE).
fileModificationChecking : Monitoring run-time modified files using timeStampMaster (fileModificationSkew 10)
allowSystemOperations : Allowing user-supplied system call operations

// * * * * * * * * * * * * * * * * * * * * * * * * * * * * * * * * * * * * * //
Reading surf from "constant/triSurface/filter.stl" ...
Writing surf to "constant/triSurface/filter_17.stl" ...
Translating points by (0.195801 0.02 0.731332)
End

/*---------------------------------------------------------------------------*\
  =========                 |
  \\      /  F ield         | OpenFOAM: The Open Source CFD Toolbox
   \\    /   O peration     | Website:  https://openfoam.org
    \\  /    A nd           | Version:  6
     \\/     M anipulation  |
\*---------------------------------------------------------------------------*/
Build  : 6
Exec   : surfaceTransformPoints -translate ( 0.2561677773906473 0.02 0.849808732224301 ) constant/triSurface/filter.stl constant/triSurface/filter_18.stl
Date   : Aug 06 2020
Time   : 14:46:33
Host   : "emps-ugmat1"
PID    : 28411
I/O    : uncollated
Case   : /home/links/jjw230/Optimisation_second_draft/Default
nProcs : 1
sigFpe : Enabling floating point exception trapping (FOAM_SIGFPE).
fileModificationChecking : Monitoring run-time modified files using timeStampMaster (fileModificationSkew 10)
allowSystemOperations : Allowing user-supplied system call operations

// * * * * * * * * * * * * * * * * * * * * * * * * * * * * * * * * * * * * * //
Reading surf from "constant/triSurface/filter.stl" ...
Writing surf to "constant/triSurface/filter_18.stl" ...
Translating points by (0.256168 0.02 0.849809)
End

/*---------------------------------------------------------------------------*\
  =========                 |
  \\      /  F ield         | OpenFOAM: The Open Source CFD Toolbox
   \\    /   O peration     | Website:  https://openfoam.org
    \\  /    A nd           | Version:  6
     \\/     M anipulation  |
\*---------------------------------------------------------------------------*/
Build  : 6
Exec   : surfaceTransformPoints -translate ( 0.3501912677756988 0.02 0.9438322226093525 ) constant/triSurface/filter.stl constant/triSurface/filter_19.stl
Date   : Aug 06 2020
Time   : 14:46:33
Host   : "emps-ugmat1"
PID    : 28412
I/O    : uncollated
Case   : /home/links/jjw230/Optimisation_second_draft/Default
nProcs : 1
sigFpe : Enabling floating point exception trapping (FOAM_SIGFPE).
fileModificationChecking : Monitoring run-time modified files using timeStampMaster (fileModificationSkew 10)
allowSystemOperations : Allowing user-supplied system call operations

// * * * * * * * * * * * * * * * * * * * * * * * * * * * * * * * * * * * * * //
Reading surf from "constant/triSurface/filter.stl" ...
Writing surf to "constant/triSurface/filter_19.stl" ...
Translating points by (0.350191 0.02 0.943832)
End

/*---------------------------------------------------------------------------*\
  =========                 |
  \\      /  F ield         | OpenFOAM: The Open Source CFD Toolbox
   \\    /   O peration     | Website:  https://openfoam.org
    \\  /    A nd           | Version:  6
     \\/     M anipulation  |
\*---------------------------------------------------------------------------*/
Build  : 6
Exec   : surfaceTransformPoints -translate ( 0.46866777739064736 0.315 1.0041990194254402 ) constant/triSurface/filter.stl constant/triSurface/filter_20.stl
Date   : Aug 06 2020
Time   : 14:46:33
Host   : "emps-ugmat1"
PID    : 28413
I/O    : uncollated
Case   : /home/links/jjw230/Optimisation_second_draft/Default
nProcs : 1
sigFpe : Enabling floating point exception trapping (FOAM_SIGFPE).
fileModificationChecking : Monitoring run-time modified files using timeStampMaster (fileModificationSkew 10)
allowSystemOperations : Allowing user-supplied system call operations

// * * * * * * * * * * * * * * * * * * * * * * * * * * * * * * * * * * * * * //
Reading surf from "constant/triSurface/filter.stl" ...
Writing surf to "constant/triSurface/filter_20.stl" ...
Translating points by (0.468668 0.315 1.0042)
End

/*---------------------------------------------------------------------------*\
  =========                 |
  \\      /  F ield         | OpenFOAM: The Open Source CFD Toolbox
   \\    /   O peration     | Website:  https://openfoam.org
    \\  /    A nd           | Version:  6
     \\/     M anipulation  |
\*---------------------------------------------------------------------------*/
Build  : 6
Exec   : surfaceTransformPoints -translate ( 0.6 0.315 1.025 ) constant/triSurface/filter.stl constant/triSurface/filter_21.stl
Date   : Aug 06 2020
Time   : 14:46:33
Host   : "emps-ugmat1"
PID    : 28414
I/O    : uncollated
Case   : /home/links/jjw230/Optimisation_second_draft/Default
nProcs : 1
sigFpe : Enabling floating point exception trapping (FOAM_SIGFPE).
fileModificationChecking : Monitoring run-time modified files using timeStampMaster (fileModificationSkew 10)
allowSystemOperations : Allowing user-supplied system call operations

// * * * * * * * * * * * * * * * * * * * * * * * * * * * * * * * * * * * * * //
Reading surf from "constant/triSurface/filter.stl" ...
Writing surf to "constant/triSurface/filter_21.stl" ...
Translating points by (0.6 0.315 1.025)
End

/*---------------------------------------------------------------------------*\
  =========                 |
  \\      /  F ield         | OpenFOAM: The Open Source CFD Toolbox
   \\    /   O peration     | Website:  https://openfoam.org
    \\  /    A nd           | Version:  6
     \\/     M anipulation  |
\*---------------------------------------------------------------------------*/
Build  : 6
Exec   : surfaceTransformPoints -translate ( 0.7313322226093526 0.315 1.0041990194254402 ) constant/triSurface/filter.stl constant/triSurface/filter_22.stl
Date   : Aug 06 2020
Time   : 14:46:34
Host   : "emps-ugmat1"
PID    : 28417
I/O    : uncollated
Case   : /home/links/jjw230/Optimisation_second_draft/Default
nProcs : 1
sigFpe : Enabling floating point exception trapping (FOAM_SIGFPE).
fileModificationChecking : Monitoring run-time modified files using timeStampMaster (fileModificationSkew 10)
allowSystemOperations : Allowing user-supplied system call operations

// * * * * * * * * * * * * * * * * * * * * * * * * * * * * * * * * * * * * * //
Reading surf from "constant/triSurface/filter.stl" ...
Writing surf to "constant/triSurface/filter_22.stl" ...
Translating points by (0.731332 0.315 1.0042)
End

/*---------------------------------------------------------------------------*\
  =========                 |
  \\      /  F ield         | OpenFOAM: The Open Source CFD Toolbox
   \\    /   O peration     | Website:  https://openfoam.org
    \\  /    A nd           | Version:  6
     \\/     M anipulation  |
\*---------------------------------------------------------------------------*/
Build  : 6
Exec   : surfaceTransformPoints -translate ( 0.8498087322243011 0.315 0.9438322226093526 ) constant/triSurface/filter.stl constant/triSurface/filter_23.stl
Date   : Aug 06 2020
Time   : 14:46:34
Host   : "emps-ugmat1"
PID    : 28418
I/O    : uncollated
Case   : /home/links/jjw230/Optimisation_second_draft/Default
nProcs : 1
sigFpe : Enabling floating point exception trapping (FOAM_SIGFPE).
fileModificationChecking : Monitoring run-time modified files using timeStampMaster (fileModificationSkew 10)
allowSystemOperations : Allowing user-supplied system call operations

// * * * * * * * * * * * * * * * * * * * * * * * * * * * * * * * * * * * * * //
Reading surf from "constant/triSurface/filter.stl" ...
Writing surf to "constant/triSurface/filter_23.stl" ...
Translating points by (0.849809 0.315 0.943832)
End

/*---------------------------------------------------------------------------*\
  =========                 |
  \\      /  F ield         | OpenFOAM: The Open Source CFD Toolbox
   \\    /   O peration     | Website:  https://openfoam.org
    \\  /    A nd           | Version:  6
     \\/     M anipulation  |
\*---------------------------------------------------------------------------*/
Build  : 6
Exec   : surfaceTransformPoints -translate ( 0.9438322226093526 0.315 0.8498087322243011 ) constant/triSurface/filter.stl constant/triSurface/filter_24.stl
Date   : Aug 06 2020
Time   : 14:46:34
Host   : "emps-ugmat1"
PID    : 28419
I/O    : uncollated
Case   : /home/links/jjw230/Optimisation_second_draft/Default
nProcs : 1
sigFpe : Enabling floating point exception trapping (FOAM_SIGFPE).
fileModificationChecking : Monitoring run-time modified files using timeStampMaster (fileModificationSkew 10)
allowSystemOperations : Allowing user-supplied system call operations

// * * * * * * * * * * * * * * * * * * * * * * * * * * * * * * * * * * * * * //
Reading surf from "constant/triSurface/filter.stl" ...
Writing surf to "constant/triSurface/filter_24.stl" ...
Translating points by (0.943832 0.315 0.849809)
End

/*---------------------------------------------------------------------------*\
  =========                 |
  \\      /  F ield         | OpenFOAM: The Open Source CFD Toolbox
   \\    /   O peration     | Website:  https://openfoam.org
    \\  /    A nd           | Version:  6
     \\/     M anipulation  |
\*---------------------------------------------------------------------------*/
Build  : 6
Exec   : surfaceTransformPoints -translate ( 1.0041990194254402 0.315 0.7313322226093526 ) constant/triSurface/filter.stl constant/triSurface/filter_25.stl
Date   : Aug 06 2020
Time   : 14:46:34
Host   : "emps-ugmat1"
PID    : 28420
I/O    : uncollated
Case   : /home/links/jjw230/Optimisation_second_draft/Default
nProcs : 1
sigFpe : Enabling floating point exception trapping (FOAM_SIGFPE).
fileModificationChecking : Monitoring run-time modified files using timeStampMaster (fileModificationSkew 10)
allowSystemOperations : Allowing user-supplied system call operations

// * * * * * * * * * * * * * * * * * * * * * * * * * * * * * * * * * * * * * //
Reading surf from "constant/triSurface/filter.stl" ...
Writing surf to "constant/triSurface/filter_25.stl" ...
Translating points by (1.0042 0.315 0.731332)
End

/*---------------------------------------------------------------------------*\
  =========                 |
  \\      /  F ield         | OpenFOAM: The Open Source CFD Toolbox
   \\    /   O peration     | Website:  https://openfoam.org
    \\  /    A nd           | Version:  6
     \\/     M anipulation  |
\*---------------------------------------------------------------------------*/
Build  : 6
Exec   : surfaceTransformPoints -translate ( 1.025 0.315 0.6 ) constant/triSurface/filter.stl constant/triSurface/filter_26.stl
Date   : Aug 06 2020
Time   : 14:46:34
Host   : "emps-ugmat1"
PID    : 28421
I/O    : uncollated
Case   : /home/links/jjw230/Optimisation_second_draft/Default
nProcs : 1
sigFpe : Enabling floating point exception trapping (FOAM_SIGFPE).
fileModificationChecking : Monitoring run-time modified files using timeStampMaster (fileModificationSkew 10)
allowSystemOperations : Allowing user-supplied system call operations

// * * * * * * * * * * * * * * * * * * * * * * * * * * * * * * * * * * * * * //
Reading surf from "constant/triSurface/filter.stl" ...
Writing surf to "constant/triSurface/filter_26.stl" ...
Translating points by (1.025 0.315 0.6)
End

/*---------------------------------------------------------------------------*\
  =========                 |
  \\      /  F ield         | OpenFOAM: The Open Source CFD Toolbox
   \\    /   O peration     | Website:  https://openfoam.org
    \\  /    A nd           | Version:  6
     \\/     M anipulation  |
\*---------------------------------------------------------------------------*/
Build  : 6
Exec   : surfaceTransformPoints -translate ( 1.0041990194254402 0.315 0.46866777739064736 ) constant/triSurface/filter.stl constant/triSurface/filter_27.stl
Date   : Aug 06 2020
Time   : 14:46:34
Host   : "emps-ugmat1"
PID    : 28422
I/O    : uncollated
Case   : /home/links/jjw230/Optimisation_second_draft/Default
nProcs : 1
sigFpe : Enabling floating point exception trapping (FOAM_SIGFPE).
fileModificationChecking : Monitoring run-time modified files using timeStampMaster (fileModificationSkew 10)
allowSystemOperations : Allowing user-supplied system call operations

// * * * * * * * * * * * * * * * * * * * * * * * * * * * * * * * * * * * * * //
Reading surf from "constant/triSurface/filter.stl" ...
Writing surf to "constant/triSurface/filter_27.stl" ...
Translating points by (1.0042 0.315 0.468668)
End

/*---------------------------------------------------------------------------*\
  =========                 |
  \\      /  F ield         | OpenFOAM: The Open Source CFD Toolbox
   \\    /   O peration     | Website:  https://openfoam.org
    \\  /    A nd           | Version:  6
     \\/     M anipulation  |
\*---------------------------------------------------------------------------*/
Build  : 6
Exec   : surfaceTransformPoints -translate ( 0.9438322226093526 0.315 0.350191267775699 ) constant/triSurface/filter.stl constant/triSurface/filter_28.stl
Date   : Aug 06 2020
Time   : 14:46:34
Host   : "emps-ugmat1"
PID    : 28423
I/O    : uncollated
Case   : /home/links/jjw230/Optimisation_second_draft/Default
nProcs : 1
sigFpe : Enabling floating point exception trapping (FOAM_SIGFPE).
fileModificationChecking : Monitoring run-time modified files using timeStampMaster (fileModificationSkew 10)
allowSystemOperations : Allowing user-supplied system call operations

// * * * * * * * * * * * * * * * * * * * * * * * * * * * * * * * * * * * * * //
Reading surf from "constant/triSurface/filter.stl" ...
Writing surf to "constant/triSurface/filter_28.stl" ...
Translating points by (0.943832 0.315 0.350191)
End

/*---------------------------------------------------------------------------*\
  =========                 |
  \\      /  F ield         | OpenFOAM: The Open Source CFD Toolbox
   \\    /   O peration     | Website:  https://openfoam.org
    \\  /    A nd           | Version:  6
     \\/     M anipulation  |
\*---------------------------------------------------------------------------*/
Build  : 6
Exec   : surfaceTransformPoints -translate ( 0.8498087322243011 0.315 0.2561677773906474 ) constant/triSurface/filter.stl constant/triSurface/filter_29.stl
Date   : Aug 06 2020
Time   : 14:46:34
Host   : "emps-ugmat1"
PID    : 28424
I/O    : uncollated
Case   : /home/links/jjw230/Optimisation_second_draft/Default
nProcs : 1
sigFpe : Enabling floating point exception trapping (FOAM_SIGFPE).
fileModificationChecking : Monitoring run-time modified files using timeStampMaster (fileModificationSkew 10)
allowSystemOperations : Allowing user-supplied system call operations

// * * * * * * * * * * * * * * * * * * * * * * * * * * * * * * * * * * * * * //
Reading surf from "constant/triSurface/filter.stl" ...
Writing surf to "constant/triSurface/filter_29.stl" ...
Translating points by (0.849809 0.315 0.256168)
End

/*---------------------------------------------------------------------------*\
  =========                 |
  \\      /  F ield         | OpenFOAM: The Open Source CFD Toolbox
   \\    /   O peration     | Website:  https://openfoam.org
    \\  /    A nd           | Version:  6
     \\/     M anipulation  |
\*---------------------------------------------------------------------------*/
Build  : 6
Exec   : surfaceTransformPoints -translate ( 0.7313322226093526 0.315 0.19580098057455975 ) constant/triSurface/filter.stl constant/triSurface/filter_30.stl
Date   : Aug 06 2020
Time   : 14:46:34
Host   : "emps-ugmat1"
PID    : 28425
I/O    : uncollated
Case   : /home/links/jjw230/Optimisation_second_draft/Default
nProcs : 1
sigFpe : Enabling floating point exception trapping (FOAM_SIGFPE).
fileModificationChecking : Monitoring run-time modified files using timeStampMaster (fileModificationSkew 10)
allowSystemOperations : Allowing user-supplied system call operations

// * * * * * * * * * * * * * * * * * * * * * * * * * * * * * * * * * * * * * //
Reading surf from "constant/triSurface/filter.stl" ...
Writing surf to "constant/triSurface/filter_30.stl" ...
Translating points by (0.731332 0.315 0.195801)
End

/*---------------------------------------------------------------------------*\
  =========                 |
  \\      /  F ield         | OpenFOAM: The Open Source CFD Toolbox
   \\    /   O peration     | Website:  https://openfoam.org
    \\  /    A nd           | Version:  6
     \\/     M anipulation  |
\*---------------------------------------------------------------------------*/
Build  : 6
Exec   : surfaceTransformPoints -translate ( 0.6 0.315 0.175 ) constant/triSurface/filter.stl constant/triSurface/filter_31.stl
Date   : Aug 06 2020
Time   : 14:46:34
Host   : "emps-ugmat1"
PID    : 28426
I/O    : uncollated
Case   : /home/links/jjw230/Optimisation_second_draft/Default
nProcs : 1
sigFpe : Enabling floating point exception trapping (FOAM_SIGFPE).
fileModificationChecking : Monitoring run-time modified files using timeStampMaster (fileModificationSkew 10)
allowSystemOperations : Allowing user-supplied system call operations

// * * * * * * * * * * * * * * * * * * * * * * * * * * * * * * * * * * * * * //
Reading surf from "constant/triSurface/filter.stl" ...
Writing surf to "constant/triSurface/filter_31.stl" ...
Translating points by (0.6 0.315 0.175)
End

/*---------------------------------------------------------------------------*\
  =========                 |
  \\      /  F ield         | OpenFOAM: The Open Source CFD Toolbox
   \\    /   O peration     | Website:  https://openfoam.org
    \\  /    A nd           | Version:  6
     \\/     M anipulation  |
\*---------------------------------------------------------------------------*/
Build  : 6
Exec   : surfaceTransformPoints -translate ( 0.46866777739064736 0.315 0.1958009805745597 ) constant/triSurface/filter.stl constant/triSurface/filter_32.stl
Date   : Aug 06 2020
Time   : 14:46:34
Host   : "emps-ugmat1"
PID    : 28429
I/O    : uncollated
Case   : /home/links/jjw230/Optimisation_second_draft/Default
nProcs : 1
sigFpe : Enabling floating point exception trapping (FOAM_SIGFPE).
fileModificationChecking : Monitoring run-time modified files using timeStampMaster (fileModificationSkew 10)
allowSystemOperations : Allowing user-supplied system call operations

// * * * * * * * * * * * * * * * * * * * * * * * * * * * * * * * * * * * * * //
Reading surf from "constant/triSurface/filter.stl" ...
Writing surf to "constant/triSurface/filter_32.stl" ...
Translating points by (0.468668 0.315 0.195801)
End

/*---------------------------------------------------------------------------*\
  =========                 |
  \\      /  F ield         | OpenFOAM: The Open Source CFD Toolbox
   \\    /   O peration     | Website:  https://openfoam.org
    \\  /    A nd           | Version:  6
     \\/     M anipulation  |
\*---------------------------------------------------------------------------*/
Build  : 6
Exec   : surfaceTransformPoints -translate ( 0.350191267775699 0.315 0.2561677773906473 ) constant/triSurface/filter.stl constant/triSurface/filter_33.stl
Date   : Aug 06 2020
Time   : 14:46:34
Host   : "emps-ugmat1"
PID    : 28430
I/O    : uncollated
Case   : /home/links/jjw230/Optimisation_second_draft/Default
nProcs : 1
sigFpe : Enabling floating point exception trapping (FOAM_SIGFPE).
fileModificationChecking : Monitoring run-time modified files using timeStampMaster (fileModificationSkew 10)
allowSystemOperations : Allowing user-supplied system call operations

// * * * * * * * * * * * * * * * * * * * * * * * * * * * * * * * * * * * * * //
Reading surf from "constant/triSurface/filter.stl" ...
Writing surf to "constant/triSurface/filter_33.stl" ...
Translating points by (0.350191 0.315 0.256168)
End

/*---------------------------------------------------------------------------*\
  =========                 |
  \\      /  F ield         | OpenFOAM: The Open Source CFD Toolbox
   \\    /   O peration     | Website:  https://openfoam.org
    \\  /    A nd           | Version:  6
     \\/     M anipulation  |
\*---------------------------------------------------------------------------*/
Build  : 6
Exec   : surfaceTransformPoints -translate ( 0.2561677773906474 0.315 0.35019126777569887 ) constant/triSurface/filter.stl constant/triSurface/filter_34.stl
Date   : Aug 06 2020
Time   : 14:46:34
Host   : "emps-ugmat1"
PID    : 28431
I/O    : uncollated
Case   : /home/links/jjw230/Optimisation_second_draft/Default
nProcs : 1
sigFpe : Enabling floating point exception trapping (FOAM_SIGFPE).
fileModificationChecking : Monitoring run-time modified files using timeStampMaster (fileModificationSkew 10)
allowSystemOperations : Allowing user-supplied system call operations

// * * * * * * * * * * * * * * * * * * * * * * * * * * * * * * * * * * * * * //
Reading surf from "constant/triSurface/filter.stl" ...
Writing surf to "constant/triSurface/filter_34.stl" ...
Translating points by (0.256168 0.315 0.350191)
End

/*---------------------------------------------------------------------------*\
  =========                 |
  \\      /  F ield         | OpenFOAM: The Open Source CFD Toolbox
   \\    /   O peration     | Website:  https://openfoam.org
    \\  /    A nd           | Version:  6
     \\/     M anipulation  |
\*---------------------------------------------------------------------------*/
Build  : 6
Exec   : surfaceTransformPoints -translate ( 0.19580098057455975 0.315 0.46866777739064724 ) constant/triSurface/filter.stl constant/triSurface/filter_35.stl
Date   : Aug 06 2020
Time   : 14:46:34
Host   : "emps-ugmat1"
PID    : 28432
I/O    : uncollated
Case   : /home/links/jjw230/Optimisation_second_draft/Default
nProcs : 1
sigFpe : Enabling floating point exception trapping (FOAM_SIGFPE).
fileModificationChecking : Monitoring run-time modified files using timeStampMaster (fileModificationSkew 10)
allowSystemOperations : Allowing user-supplied system call operations

// * * * * * * * * * * * * * * * * * * * * * * * * * * * * * * * * * * * * * //
Reading surf from "constant/triSurface/filter.stl" ...
Writing surf to "constant/triSurface/filter_35.stl" ...
Translating points by (0.195801 0.315 0.468668)
End

/*---------------------------------------------------------------------------*\
  =========                 |
  \\      /  F ield         | OpenFOAM: The Open Source CFD Toolbox
   \\    /   O peration     | Website:  https://openfoam.org
    \\  /    A nd           | Version:  6
     \\/     M anipulation  |
\*---------------------------------------------------------------------------*/
Build  : 6
Exec   : surfaceTransformPoints -translate ( 0.175 0.315 0.5999999999999999 ) constant/triSurface/filter.stl constant/triSurface/filter_36.stl
Date   : Aug 06 2020
Time   : 14:46:34
Host   : "emps-ugmat1"
PID    : 28433
I/O    : uncollated
Case   : /home/links/jjw230/Optimisation_second_draft/Default
nProcs : 1
sigFpe : Enabling floating point exception trapping (FOAM_SIGFPE).
fileModificationChecking : Monitoring run-time modified files using timeStampMaster (fileModificationSkew 10)
allowSystemOperations : Allowing user-supplied system call operations

// * * * * * * * * * * * * * * * * * * * * * * * * * * * * * * * * * * * * * //
Reading surf from "constant/triSurface/filter.stl" ...
Writing surf to "constant/triSurface/filter_36.stl" ...
Translating points by (0.175 0.315 0.6)
End

/*---------------------------------------------------------------------------*\
  =========                 |
  \\      /  F ield         | OpenFOAM: The Open Source CFD Toolbox
   \\    /   O peration     | Website:  https://openfoam.org
    \\  /    A nd           | Version:  6
     \\/     M anipulation  |
\*---------------------------------------------------------------------------*/
Build  : 6
Exec   : surfaceTransformPoints -translate ( 0.1958009805745597 0.315 0.7313322226093526 ) constant/triSurface/filter.stl constant/triSurface/filter_37.stl
Date   : Aug 06 2020
Time   : 14:46:34
Host   : "emps-ugmat1"
PID    : 28434
I/O    : uncollated
Case   : /home/links/jjw230/Optimisation_second_draft/Default
nProcs : 1
sigFpe : Enabling floating point exception trapping (FOAM_SIGFPE).
fileModificationChecking : Monitoring run-time modified files using timeStampMaster (fileModificationSkew 10)
allowSystemOperations : Allowing user-supplied system call operations

// * * * * * * * * * * * * * * * * * * * * * * * * * * * * * * * * * * * * * //
Reading surf from "constant/triSurface/filter.stl" ...
Writing surf to "constant/triSurface/filter_37.stl" ...
Translating points by (0.195801 0.315 0.731332)
End

/*---------------------------------------------------------------------------*\
  =========                 |
  \\      /  F ield         | OpenFOAM: The Open Source CFD Toolbox
   \\    /   O peration     | Website:  https://openfoam.org
    \\  /    A nd           | Version:  6
     \\/     M anipulation  |
\*---------------------------------------------------------------------------*/
Build  : 6
Exec   : surfaceTransformPoints -translate ( 0.2561677773906473 0.315 0.849808732224301 ) constant/triSurface/filter.stl constant/triSurface/filter_38.stl
Date   : Aug 06 2020
Time   : 14:46:34
Host   : "emps-ugmat1"
PID    : 28435
I/O    : uncollated
Case   : /home/links/jjw230/Optimisation_second_draft/Default
nProcs : 1
sigFpe : Enabling floating point exception trapping (FOAM_SIGFPE).
fileModificationChecking : Monitoring run-time modified files using timeStampMaster (fileModificationSkew 10)
allowSystemOperations : Allowing user-supplied system call operations

// * * * * * * * * * * * * * * * * * * * * * * * * * * * * * * * * * * * * * //
Reading surf from "constant/triSurface/filter.stl" ...
Writing surf to "constant/triSurface/filter_38.stl" ...
Translating points by (0.256168 0.315 0.849809)
End

/*---------------------------------------------------------------------------*\
  =========                 |
  \\      /  F ield         | OpenFOAM: The Open Source CFD Toolbox
   \\    /   O peration     | Website:  https://openfoam.org
    \\  /    A nd           | Version:  6
     \\/     M anipulation  |
\*---------------------------------------------------------------------------*/
Build  : 6
Exec   : surfaceTransformPoints -translate ( 0.3501912677756988 0.315 0.9438322226093525 ) constant/triSurface/filter.stl constant/triSurface/filter_39.stl
Date   : Aug 06 2020
Time   : 14:46:34
Host   : "emps-ugmat1"
PID    : 28436
I/O    : uncollated
Case   : /home/links/jjw230/Optimisation_second_draft/Default
nProcs : 1
sigFpe : Enabling floating point exception trapping (FOAM_SIGFPE).
fileModificationChecking : Monitoring run-time modified files using timeStampMaster (fileModificationSkew 10)
allowSystemOperations : Allowing user-supplied system call operations

// * * * * * * * * * * * * * * * * * * * * * * * * * * * * * * * * * * * * * //
Reading surf from "constant/triSurface/filter.stl" ...
Writing surf to "constant/triSurface/filter_39.stl" ...
Translating points by (0.350191 0.315 0.943832)
End

/*---------------------------------------------------------------------------*\
  =========                 |
  \\      /  F ield         | OpenFOAM: The Open Source CFD Toolbox
   \\    /   O peration     | Website:  https://openfoam.org
    \\  /    A nd           | Version:  6
     \\/     M anipulation  |
\*---------------------------------------------------------------------------*/
Build  : 6
Exec   : surfaceTransformPoints -translate ( 0.46866777739064736 0.61 1.0041990194254402 ) constant/triSurface/filter.stl constant/triSurface/filter_40.stl
Date   : Aug 06 2020
Time   : 14:46:34
Host   : "emps-ugmat1"
PID    : 28437
I/O    : uncollated
Case   : /home/links/jjw230/Optimisation_second_draft/Default
nProcs : 1
sigFpe : Enabling floating point exception trapping (FOAM_SIGFPE).
fileModificationChecking : Monitoring run-time modified files using timeStampMaster (fileModificationSkew 10)
allowSystemOperations : Allowing user-supplied system call operations

// * * * * * * * * * * * * * * * * * * * * * * * * * * * * * * * * * * * * * //
Reading surf from "constant/triSurface/filter.stl" ...
Writing surf to "constant/triSurface/filter_40.stl" ...
Translating points by (0.468668 0.61 1.0042)
End

/*---------------------------------------------------------------------------*\
  =========                 |
  \\      /  F ield         | OpenFOAM: The Open Source CFD Toolbox
   \\    /   O peration     | Website:  https://openfoam.org
    \\  /    A nd           | Version:  6
     \\/     M anipulation  |
\*---------------------------------------------------------------------------*/
Build  : 6
Exec   : surfaceTransformPoints -translate ( 0.6 0.61 1.025 ) constant/triSurface/filter.stl constant/triSurface/filter_41.stl
Date   : Aug 06 2020
Time   : 14:46:35
Host   : "emps-ugmat1"
PID    : 28438
I/O    : uncollated
Case   : /home/links/jjw230/Optimisation_second_draft/Default
nProcs : 1
sigFpe : Enabling floating point exception trapping (FOAM_SIGFPE).
fileModificationChecking : Monitoring run-time modified files using timeStampMaster (fileModificationSkew 10)
allowSystemOperations : Allowing user-supplied system call operations

// * * * * * * * * * * * * * * * * * * * * * * * * * * * * * * * * * * * * * //
Reading surf from "constant/triSurface/filter.stl" ...
Writing surf to "constant/triSurface/filter_41.stl" ...
Translating points by (0.6 0.61 1.025)
End

/*---------------------------------------------------------------------------*\
  =========                 |
  \\      /  F ield         | OpenFOAM: The Open Source CFD Toolbox
   \\    /   O peration     | Website:  https://openfoam.org
    \\  /    A nd           | Version:  6
     \\/     M anipulation  |
\*---------------------------------------------------------------------------*/
Build  : 6
Exec   : surfaceTransformPoints -translate ( 0.7313322226093526 0.61 1.0041990194254402 ) constant/triSurface/filter.stl constant/triSurface/filter_42.stl
Date   : Aug 06 2020
Time   : 14:46:35
Host   : "emps-ugmat1"
PID    : 28439
I/O    : uncollated
Case   : /home/links/jjw230/Optimisation_second_draft/Default
nProcs : 1
sigFpe : Enabling floating point exception trapping (FOAM_SIGFPE).
fileModificationChecking : Monitoring run-time modified files using timeStampMaster (fileModificationSkew 10)
allowSystemOperations : Allowing user-supplied system call operations

// * * * * * * * * * * * * * * * * * * * * * * * * * * * * * * * * * * * * * //
Reading surf from "constant/triSurface/filter.stl" ...
Writing surf to "constant/triSurface/filter_42.stl" ...
Translating points by (0.731332 0.61 1.0042)
End

/*---------------------------------------------------------------------------*\
  =========                 |
  \\      /  F ield         | OpenFOAM: The Open Source CFD Toolbox
   \\    /   O peration     | Website:  https://openfoam.org
    \\  /    A nd           | Version:  6
     \\/     M anipulation  |
\*---------------------------------------------------------------------------*/
Build  : 6
Exec   : surfaceTransformPoints -translate ( 0.8498087322243011 0.61 0.9438322226093526 ) constant/triSurface/filter.stl constant/triSurface/filter_43.stl
Date   : Aug 06 2020
Time   : 14:46:35
Host   : "emps-ugmat1"
PID    : 28441
I/O    : uncollated
Case   : /home/links/jjw230/Optimisation_second_draft/Default
nProcs : 1
sigFpe : Enabling floating point exception trapping (FOAM_SIGFPE).
fileModificationChecking : Monitoring run-time modified files using timeStampMaster (fileModificationSkew 10)
allowSystemOperations : Allowing user-supplied system call operations

// * * * * * * * * * * * * * * * * * * * * * * * * * * * * * * * * * * * * * //
Reading surf from "constant/triSurface/filter.stl" ...
Writing surf to "constant/triSurface/filter_43.stl" ...
Translating points by (0.849809 0.61 0.943832)
End

/*---------------------------------------------------------------------------*\
  =========                 |
  \\      /  F ield         | OpenFOAM: The Open Source CFD Toolbox
   \\    /   O peration     | Website:  https://openfoam.org
    \\  /    A nd           | Version:  6
     \\/     M anipulation  |
\*---------------------------------------------------------------------------*/
Build  : 6
Exec   : surfaceTransformPoints -translate ( 0.9438322226093526 0.61 0.8498087322243011 ) constant/triSurface/filter.stl constant/triSurface/filter_44.stl
Date   : Aug 06 2020
Time   : 14:46:35
Host   : "emps-ugmat1"
PID    : 28442
I/O    : uncollated
Case   : /home/links/jjw230/Optimisation_second_draft/Default
nProcs : 1
sigFpe : Enabling floating point exception trapping (FOAM_SIGFPE).
fileModificationChecking : Monitoring run-time modified files using timeStampMaster (fileModificationSkew 10)
allowSystemOperations : Allowing user-supplied system call operations

// * * * * * * * * * * * * * * * * * * * * * * * * * * * * * * * * * * * * * //
Reading surf from "constant/triSurface/filter.stl" ...
Writing surf to "constant/triSurface/filter_44.stl" ...
Translating points by (0.943832 0.61 0.849809)
End

/*---------------------------------------------------------------------------*\
  =========                 |
  \\      /  F ield         | OpenFOAM: The Open Source CFD Toolbox
   \\    /   O peration     | Website:  https://openfoam.org
    \\  /    A nd           | Version:  6
     \\/     M anipulation  |
\*---------------------------------------------------------------------------*/
Build  : 6
Exec   : surfaceTransformPoints -translate ( 1.0041990194254402 0.61 0.7313322226093526 ) constant/triSurface/filter.stl constant/triSurface/filter_45.stl
Date   : Aug 06 2020
Time   : 14:46:35
Host   : "emps-ugmat1"
PID    : 28446
I/O    : uncollated
Case   : /home/links/jjw230/Optimisation_second_draft/Default
nProcs : 1
sigFpe : Enabling floating point exception trapping (FOAM_SIGFPE).
fileModificationChecking : Monitoring run-time modified files using timeStampMaster (fileModificationSkew 10)
allowSystemOperations : Allowing user-supplied system call operations

// * * * * * * * * * * * * * * * * * * * * * * * * * * * * * * * * * * * * * //
Reading surf from "constant/triSurface/filter.stl" ...
Writing surf to "constant/triSurface/filter_45.stl" ...
Translating points by (1.0042 0.61 0.731332)
End

/*---------------------------------------------------------------------------*\
  =========                 |
  \\      /  F ield         | OpenFOAM: The Open Source CFD Toolbox
   \\    /   O peration     | Website:  https://openfoam.org
    \\  /    A nd           | Version:  6
     \\/     M anipulation  |
\*---------------------------------------------------------------------------*/
Build  : 6
Exec   : surfaceTransformPoints -translate ( 1.025 0.61 0.6 ) constant/triSurface/filter.stl constant/triSurface/filter_46.stl
Date   : Aug 06 2020
Time   : 14:46:35
Host   : "emps-ugmat1"
PID    : 28447
I/O    : uncollated
Case   : /home/links/jjw230/Optimisation_second_draft/Default
nProcs : 1
sigFpe : Enabling floating point exception trapping (FOAM_SIGFPE).
fileModificationChecking : Monitoring run-time modified files using timeStampMaster (fileModificationSkew 10)
allowSystemOperations : Allowing user-supplied system call operations

// * * * * * * * * * * * * * * * * * * * * * * * * * * * * * * * * * * * * * //
Reading surf from "constant/triSurface/filter.stl" ...
Writing surf to "constant/triSurface/filter_46.stl" ...
Translating points by (1.025 0.61 0.6)
End

/*---------------------------------------------------------------------------*\
  =========                 |
  \\      /  F ield         | OpenFOAM: The Open Source CFD Toolbox
   \\    /   O peration     | Website:  https://openfoam.org
    \\  /    A nd           | Version:  6
     \\/     M anipulation  |
\*---------------------------------------------------------------------------*/
Build  : 6
Exec   : surfaceTransformPoints -translate ( 1.0041990194254402 0.61 0.46866777739064736 ) constant/triSurface/filter.stl constant/triSurface/filter_47.stl
Date   : Aug 06 2020
Time   : 14:46:35
Host   : "emps-ugmat1"
PID    : 28449
I/O    : uncollated
Case   : /home/links/jjw230/Optimisation_second_draft/Default
nProcs : 1
sigFpe : Enabling floating point exception trapping (FOAM_SIGFPE).
fileModificationChecking : Monitoring run-time modified files using timeStampMaster (fileModificationSkew 10)
allowSystemOperations : Allowing user-supplied system call operations

// * * * * * * * * * * * * * * * * * * * * * * * * * * * * * * * * * * * * * //
Reading surf from "constant/triSurface/filter.stl" ...
Writing surf to "constant/triSurface/filter_47.stl" ...
Translating points by (1.0042 0.61 0.468668)
End

/*---------------------------------------------------------------------------*\
  =========                 |
  \\      /  F ield         | OpenFOAM: The Open Source CFD Toolbox
   \\    /   O peration     | Website:  https://openfoam.org
    \\  /    A nd           | Version:  6
     \\/     M anipulation  |
\*---------------------------------------------------------------------------*/
Build  : 6
Exec   : surfaceTransformPoints -translate ( 0.9438322226093526 0.61 0.350191267775699 ) constant/triSurface/filter.stl constant/triSurface/filter_48.stl
Date   : Aug 06 2020
Time   : 14:46:35
Host   : "emps-ugmat1"
PID    : 28450
I/O    : uncollated
Case   : /home/links/jjw230/Optimisation_second_draft/Default
nProcs : 1
sigFpe : Enabling floating point exception trapping (FOAM_SIGFPE).
fileModificationChecking : Monitoring run-time modified files using timeStampMaster (fileModificationSkew 10)
allowSystemOperations : Allowing user-supplied system call operations

// * * * * * * * * * * * * * * * * * * * * * * * * * * * * * * * * * * * * * //
Reading surf from "constant/triSurface/filter.stl" ...
Writing surf to "constant/triSurface/filter_48.stl" ...
Translating points by (0.943832 0.61 0.350191)
End

/*---------------------------------------------------------------------------*\
  =========                 |
  \\      /  F ield         | OpenFOAM: The Open Source CFD Toolbox
   \\    /   O peration     | Website:  https://openfoam.org
    \\  /    A nd           | Version:  6
     \\/     M anipulation  |
\*---------------------------------------------------------------------------*/
Build  : 6
Exec   : surfaceTransformPoints -translate ( 0.8498087322243011 0.61 0.2561677773906474 ) constant/triSurface/filter.stl constant/triSurface/filter_49.stl
Date   : Aug 06 2020
Time   : 14:46:35
Host   : "emps-ugmat1"
PID    : 28451
I/O    : uncollated
Case   : /home/links/jjw230/Optimisation_second_draft/Default
nProcs : 1
sigFpe : Enabling floating point exception trapping (FOAM_SIGFPE).
fileModificationChecking : Monitoring run-time modified files using timeStampMaster (fileModificationSkew 10)
allowSystemOperations : Allowing user-supplied system call operations

// * * * * * * * * * * * * * * * * * * * * * * * * * * * * * * * * * * * * * //
Reading surf from "constant/triSurface/filter.stl" ...
Writing surf to "constant/triSurface/filter_49.stl" ...
Translating points by (0.849809 0.61 0.256168)
End

/*---------------------------------------------------------------------------*\
  =========                 |
  \\      /  F ield         | OpenFOAM: The Open Source CFD Toolbox
   \\    /   O peration     | Website:  https://openfoam.org
    \\  /    A nd           | Version:  6
     \\/     M anipulation  |
\*---------------------------------------------------------------------------*/
Build  : 6
Exec   : surfaceTransformPoints -translate ( 0.7313322226093526 0.61 0.19580098057455975 ) constant/triSurface/filter.stl constant/triSurface/filter_50.stl
Date   : Aug 06 2020
Time   : 14:46:35
Host   : "emps-ugmat1"
PID    : 28455
I/O    : uncollated
Case   : /home/links/jjw230/Optimisation_second_draft/Default
nProcs : 1
sigFpe : Enabling floating point exception trapping (FOAM_SIGFPE).
fileModificationChecking : Monitoring run-time modified files using timeStampMaster (fileModificationSkew 10)
allowSystemOperations : Allowing user-supplied system call operations

// * * * * * * * * * * * * * * * * * * * * * * * * * * * * * * * * * * * * * //
Reading surf from "constant/triSurface/filter.stl" ...
Writing surf to "constant/triSurface/filter_50.stl" ...
Translating points by (0.731332 0.61 0.195801)
End

/*---------------------------------------------------------------------------*\
  =========                 |
  \\      /  F ield         | OpenFOAM: The Open Source CFD Toolbox
   \\    /   O peration     | Website:  https://openfoam.org
    \\  /    A nd           | Version:  6
     \\/     M anipulation  |
\*---------------------------------------------------------------------------*/
Build  : 6
Exec   : surfaceTransformPoints -translate ( 0.6 0.61 0.175 ) constant/triSurface/filter.stl constant/triSurface/filter_51.stl
Date   : Aug 06 2020
Time   : 14:46:35
Host   : "emps-ugmat1"
PID    : 28456
I/O    : uncollated
Case   : /home/links/jjw230/Optimisation_second_draft/Default
nProcs : 1
sigFpe : Enabling floating point exception trapping (FOAM_SIGFPE).
fileModificationChecking : Monitoring run-time modified files using timeStampMaster (fileModificationSkew 10)
allowSystemOperations : Allowing user-supplied system call operations

// * * * * * * * * * * * * * * * * * * * * * * * * * * * * * * * * * * * * * //
Reading surf from "constant/triSurface/filter.stl" ...
Writing surf to "constant/triSurface/filter_51.stl" ...
Translating points by (0.6 0.61 0.175)
End

/*---------------------------------------------------------------------------*\
  =========                 |
  \\      /  F ield         | OpenFOAM: The Open Source CFD Toolbox
   \\    /   O peration     | Website:  https://openfoam.org
    \\  /    A nd           | Version:  6
     \\/     M anipulation  |
\*---------------------------------------------------------------------------*/
Build  : 6
Exec   : surfaceTransformPoints -translate ( 0.46866777739064736 0.61 0.1958009805745597 ) constant/triSurface/filter.stl constant/triSurface/filter_52.stl
Date   : Aug 06 2020
Time   : 14:46:35
Host   : "emps-ugmat1"
PID    : 28457
I/O    : uncollated
Case   : /home/links/jjw230/Optimisation_second_draft/Default
nProcs : 1
sigFpe : Enabling floating point exception trapping (FOAM_SIGFPE).
fileModificationChecking : Monitoring run-time modified files using timeStampMaster (fileModificationSkew 10)
allowSystemOperations : Allowing user-supplied system call operations

// * * * * * * * * * * * * * * * * * * * * * * * * * * * * * * * * * * * * * //
Reading surf from "constant/triSurface/filter.stl" ...
Writing surf to "constant/triSurface/filter_52.stl" ...
Translating points by (0.468668 0.61 0.195801)
End

/*---------------------------------------------------------------------------*\
  =========                 |
  \\      /  F ield         | OpenFOAM: The Open Source CFD Toolbox
   \\    /   O peration     | Website:  https://openfoam.org
    \\  /    A nd           | Version:  6
     \\/     M anipulation  |
\*---------------------------------------------------------------------------*/
Build  : 6
Exec   : surfaceTransformPoints -translate ( 0.350191267775699 0.61 0.2561677773906473 ) constant/triSurface/filter.stl constant/triSurface/filter_53.stl
Date   : Aug 06 2020
Time   : 14:46:35
Host   : "emps-ugmat1"
PID    : 28458
I/O    : uncollated
Case   : /home/links/jjw230/Optimisation_second_draft/Default
nProcs : 1
sigFpe : Enabling floating point exception trapping (FOAM_SIGFPE).
fileModificationChecking : Monitoring run-time modified files using timeStampMaster (fileModificationSkew 10)
allowSystemOperations : Allowing user-supplied system call operations

// * * * * * * * * * * * * * * * * * * * * * * * * * * * * * * * * * * * * * //
Reading surf from "constant/triSurface/filter.stl" ...
Writing surf to "constant/triSurface/filter_53.stl" ...
Translating points by (0.350191 0.61 0.256168)
End

/*---------------------------------------------------------------------------*\
  =========                 |
  \\      /  F ield         | OpenFOAM: The Open Source CFD Toolbox
   \\    /   O peration     | Website:  https://openfoam.org
    \\  /    A nd           | Version:  6
     \\/     M anipulation  |
\*---------------------------------------------------------------------------*/
Build  : 6
Exec   : surfaceTransformPoints -translate ( 0.2561677773906474 0.61 0.35019126777569887 ) constant/triSurface/filter.stl constant/triSurface/filter_54.stl
Date   : Aug 06 2020
Time   : 14:46:35
Host   : "emps-ugmat1"
PID    : 28459
I/O    : uncollated
Case   : /home/links/jjw230/Optimisation_second_draft/Default
nProcs : 1
sigFpe : Enabling floating point exception trapping (FOAM_SIGFPE).
fileModificationChecking : Monitoring run-time modified files using timeStampMaster (fileModificationSkew 10)
allowSystemOperations : Allowing user-supplied system call operations

// * * * * * * * * * * * * * * * * * * * * * * * * * * * * * * * * * * * * * //
Reading surf from "constant/triSurface/filter.stl" ...
Writing surf to "constant/triSurface/filter_54.stl" ...
Translating points by (0.256168 0.61 0.350191)
End

/*---------------------------------------------------------------------------*\
  =========                 |
  \\      /  F ield         | OpenFOAM: The Open Source CFD Toolbox
   \\    /   O peration     | Website:  https://openfoam.org
    \\  /    A nd           | Version:  6
     \\/     M anipulation  |
\*---------------------------------------------------------------------------*/
Build  : 6
Exec   : surfaceTransformPoints -translate ( 0.19580098057455975 0.61 0.46866777739064724 ) constant/triSurface/filter.stl constant/triSurface/filter_55.stl
Date   : Aug 06 2020
Time   : 14:46:35
Host   : "emps-ugmat1"
PID    : 28460
I/O    : uncollated
Case   : /home/links/jjw230/Optimisation_second_draft/Default
nProcs : 1
sigFpe : Enabling floating point exception trapping (FOAM_SIGFPE).
fileModificationChecking : Monitoring run-time modified files using timeStampMaster (fileModificationSkew 10)
allowSystemOperations : Allowing user-supplied system call operations

// * * * * * * * * * * * * * * * * * * * * * * * * * * * * * * * * * * * * * //
Reading surf from "constant/triSurface/filter.stl" ...
Writing surf to "constant/triSurface/filter_55.stl" ...
Translating points by (0.195801 0.61 0.468668)
End

/*---------------------------------------------------------------------------*\
  =========                 |
  \\      /  F ield         | OpenFOAM: The Open Source CFD Toolbox
   \\    /   O peration     | Website:  https://openfoam.org
    \\  /    A nd           | Version:  6
     \\/     M anipulation  |
\*---------------------------------------------------------------------------*/
Build  : 6
Exec   : surfaceTransformPoints -translate ( 0.175 0.61 0.5999999999999999 ) constant/triSurface/filter.stl constant/triSurface/filter_56.stl
Date   : Aug 06 2020
Time   : 14:46:35
Host   : "emps-ugmat1"
PID    : 28461
I/O    : uncollated
Case   : /home/links/jjw230/Optimisation_second_draft/Default
nProcs : 1
sigFpe : Enabling floating point exception trapping (FOAM_SIGFPE).
fileModificationChecking : Monitoring run-time modified files using timeStampMaster (fileModificationSkew 10)
allowSystemOperations : Allowing user-supplied system call operations

// * * * * * * * * * * * * * * * * * * * * * * * * * * * * * * * * * * * * * //
Reading surf from "constant/triSurface/filter.stl" ...
Writing surf to "constant/triSurface/filter_56.stl" ...
Translating points by (0.175 0.61 0.6)
End

/*---------------------------------------------------------------------------*\
  =========                 |
  \\      /  F ield         | OpenFOAM: The Open Source CFD Toolbox
   \\    /   O peration     | Website:  https://openfoam.org
    \\  /    A nd           | Version:  6
     \\/     M anipulation  |
\*---------------------------------------------------------------------------*/
Build  : 6
Exec   : surfaceTransformPoints -translate ( 0.1958009805745597 0.61 0.7313322226093526 ) constant/triSurface/filter.stl constant/triSurface/filter_57.stl
Date   : Aug 06 2020
Time   : 14:46:35
Host   : "emps-ugmat1"
PID    : 28462
I/O    : uncollated
Case   : /home/links/jjw230/Optimisation_second_draft/Default
nProcs : 1
sigFpe : Enabling floating point exception trapping (FOAM_SIGFPE).
fileModificationChecking : Monitoring run-time modified files using timeStampMaster (fileModificationSkew 10)
allowSystemOperations : Allowing user-supplied system call operations

// * * * * * * * * * * * * * * * * * * * * * * * * * * * * * * * * * * * * * //
Reading surf from "constant/triSurface/filter.stl" ...
Writing surf to "constant/triSurface/filter_57.stl" ...
Translating points by (0.195801 0.61 0.731332)
End

/*---------------------------------------------------------------------------*\
  =========                 |
  \\      /  F ield         | OpenFOAM: The Open Source CFD Toolbox
   \\    /   O peration     | Website:  https://openfoam.org
    \\  /    A nd           | Version:  6
     \\/     M anipulation  |
\*---------------------------------------------------------------------------*/
Build  : 6
Exec   : surfaceTransformPoints -translate ( 0.2561677773906473 0.61 0.849808732224301 ) constant/triSurface/filter.stl constant/triSurface/filter_58.stl
Date   : Aug 06 2020
Time   : 14:46:35
Host   : "emps-ugmat1"
PID    : 28463
I/O    : uncollated
Case   : /home/links/jjw230/Optimisation_second_draft/Default
nProcs : 1
sigFpe : Enabling floating point exception trapping (FOAM_SIGFPE).
fileModificationChecking : Monitoring run-time modified files using timeStampMaster (fileModificationSkew 10)
allowSystemOperations : Allowing user-supplied system call operations

// * * * * * * * * * * * * * * * * * * * * * * * * * * * * * * * * * * * * * //
Reading surf from "constant/triSurface/filter.stl" ...
Writing surf to "constant/triSurface/filter_58.stl" ...
Translating points by (0.256168 0.61 0.849809)
End

/*---------------------------------------------------------------------------*\
  =========                 |
  \\      /  F ield         | OpenFOAM: The Open Source CFD Toolbox
   \\    /   O peration     | Website:  https://openfoam.org
    \\  /    A nd           | Version:  6
     \\/     M anipulation  |
\*---------------------------------------------------------------------------*/
Build  : 6
Exec   : surfaceTransformPoints -translate ( 0.3501912677756988 0.61 0.9438322226093525 ) constant/triSurface/filter.stl constant/triSurface/filter_59.stl
Date   : Aug 06 2020
Time   : 14:46:36
Host   : "emps-ugmat1"
PID    : 28464
I/O    : uncollated
Case   : /home/links/jjw230/Optimisation_second_draft/Default
nProcs : 1
sigFpe : Enabling floating point exception trapping (FOAM_SIGFPE).
fileModificationChecking : Monitoring run-time modified files using timeStampMaster (fileModificationSkew 10)
allowSystemOperations : Allowing user-supplied system call operations

// * * * * * * * * * * * * * * * * * * * * * * * * * * * * * * * * * * * * * //
Reading surf from "constant/triSurface/filter.stl" ...
Writing surf to "constant/triSurface/filter_59.stl" ...
Translating points by (0.350191 0.61 0.943832)
End

/*---------------------------------------------------------------------------*\
  =========                 |
  \\      /  F ield         | OpenFOAM: The Open Source CFD Toolbox
   \\    /   O peration     | Website:  https://openfoam.org
    \\  /    A nd           | Version:  6
     \\/     M anipulation  |
\*---------------------------------------------------------------------------*/
Build  : 6
Exec   : surfaceTransformPoints -translate ( 0.46866777739064736 0.905 1.0041990194254402 ) constant/triSurface/filter.stl constant/triSurface/filter_60.stl
Date   : Aug 06 2020
Time   : 14:46:36
Host   : "emps-ugmat1"
PID    : 28465
I/O    : uncollated
Case   : /home/links/jjw230/Optimisation_second_draft/Default
nProcs : 1
sigFpe : Enabling floating point exception trapping (FOAM_SIGFPE).
fileModificationChecking : Monitoring run-time modified files using timeStampMaster (fileModificationSkew 10)
allowSystemOperations : Allowing user-supplied system call operations

// * * * * * * * * * * * * * * * * * * * * * * * * * * * * * * * * * * * * * //
Reading surf from "constant/triSurface/filter.stl" ...
Writing surf to "constant/triSurface/filter_60.stl" ...
Translating points by (0.468668 0.905 1.0042)
End

/*---------------------------------------------------------------------------*\
  =========                 |
  \\      /  F ield         | OpenFOAM: The Open Source CFD Toolbox
   \\    /   O peration     | Website:  https://openfoam.org
    \\  /    A nd           | Version:  6
     \\/     M anipulation  |
\*---------------------------------------------------------------------------*/
Build  : 6
Exec   : surfaceTransformPoints -translate ( 0.6 0.905 1.025 ) constant/triSurface/filter.stl constant/triSurface/filter_61.stl
Date   : Aug 06 2020
Time   : 14:46:36
Host   : "emps-ugmat1"
PID    : 28466
I/O    : uncollated
Case   : /home/links/jjw230/Optimisation_second_draft/Default
nProcs : 1
sigFpe : Enabling floating point exception trapping (FOAM_SIGFPE).
fileModificationChecking : Monitoring run-time modified files using timeStampMaster (fileModificationSkew 10)
allowSystemOperations : Allowing user-supplied system call operations

// * * * * * * * * * * * * * * * * * * * * * * * * * * * * * * * * * * * * * //
Reading surf from "constant/triSurface/filter.stl" ...
Writing surf to "constant/triSurface/filter_61.stl" ...
Translating points by (0.6 0.905 1.025)
End

/*---------------------------------------------------------------------------*\
  =========                 |
  \\      /  F ield         | OpenFOAM: The Open Source CFD Toolbox
   \\    /   O peration     | Website:  https://openfoam.org
    \\  /    A nd           | Version:  6
     \\/     M anipulation  |
\*---------------------------------------------------------------------------*/
Build  : 6
Exec   : surfaceTransformPoints -translate ( 0.7313322226093526 0.905 1.0041990194254402 ) constant/triSurface/filter.stl constant/triSurface/filter_62.stl
Date   : Aug 06 2020
Time   : 14:46:36
Host   : "emps-ugmat1"
PID    : 28467
I/O    : uncollated
Case   : /home/links/jjw230/Optimisation_second_draft/Default
nProcs : 1
sigFpe : Enabling floating point exception trapping (FOAM_SIGFPE).
fileModificationChecking : Monitoring run-time modified files using timeStampMaster (fileModificationSkew 10)
allowSystemOperations : Allowing user-supplied system call operations

// * * * * * * * * * * * * * * * * * * * * * * * * * * * * * * * * * * * * * //
Reading surf from "constant/triSurface/filter.stl" ...
Writing surf to "constant/triSurface/filter_62.stl" ...
Translating points by (0.731332 0.905 1.0042)
End

/*---------------------------------------------------------------------------*\
  =========                 |
  \\      /  F ield         | OpenFOAM: The Open Source CFD Toolbox
   \\    /   O peration     | Website:  https://openfoam.org
    \\  /    A nd           | Version:  6
     \\/     M anipulation  |
\*---------------------------------------------------------------------------*/
Build  : 6
Exec   : surfaceTransformPoints -translate ( 0.8498087322243011 0.905 0.9438322226093526 ) constant/triSurface/filter.stl constant/triSurface/filter_63.stl
Date   : Aug 06 2020
Time   : 14:46:36
Host   : "emps-ugmat1"
PID    : 28468
I/O    : uncollated
Case   : /home/links/jjw230/Optimisation_second_draft/Default
nProcs : 1
sigFpe : Enabling floating point exception trapping (FOAM_SIGFPE).
fileModificationChecking : Monitoring run-time modified files using timeStampMaster (fileModificationSkew 10)
allowSystemOperations : Allowing user-supplied system call operations

// * * * * * * * * * * * * * * * * * * * * * * * * * * * * * * * * * * * * * //
Reading surf from "constant/triSurface/filter.stl" ...
Writing surf to "constant/triSurface/filter_63.stl" ...
Translating points by (0.849809 0.905 0.943832)
End

/*---------------------------------------------------------------------------*\
  =========                 |
[...]
Writing map boundaryRegionAddressing from region77 boundary back to base mesh.

Region 78
-------- 
Creating mesh for region 78 cz_solid_78
Testing:"/home/links/jjw230/Optimisation_second_draft/Default/system/cz_solid_78/fvSchemes"
Writing dummy "cz_solid_78/fvSchemes"
Writing dummy "cz_solid_78/fvSolution"
Mapping fields
Mapping field cellToRegion
Mapping field k
Mapping field nut
Mapping field theta
Mapping field p
Mapping field epsilon
Mapping field U
Deleting empty patches
Writing new mesh
Writing addressing to base mesh
Writing map pointRegionAddressing from region78 points back to base mesh.
Writing map faceRegionAddressing from region78 faces back to base mesh.
Writing map cellRegionAddressing from region78 cells back to base mesh.
Writing map boundaryRegionAddressing from region78 boundary back to base mesh.

Region 79
-------- 
Creating mesh for region 79 cz_solid_79
Testing:"/home/links/jjw230/Optimisation_second_draft/Default/system/cz_solid_79/fvSchemes"
Writing dummy "cz_solid_79/fvSchemes"
Writing dummy "cz_solid_79/fvSolution"
Mapping fields
Mapping field cellToRegion
Mapping field k
Mapping field nut
Mapping field theta
Mapping field p
Mapping field epsilon
Mapping field U
Deleting empty patches
Writing new mesh
Writing addressing to base mesh
Writing map pointRegionAddressing from region79 points back to base mesh.
Writing map faceRegionAddressing from region79 faces back to base mesh.
Writing map cellRegionAddressing from region79 cells back to base mesh.
Writing map boundaryRegionAddressing from region79 boundary back to base mesh.

Region 80
-------- 
Creating mesh for region 80 cz_solid_80
Testing:"/home/links/jjw230/Optimisation_second_draft/Default/system/cz_solid_80/fvSchemes"
Writing dummy "cz_solid_80/fvSchemes"
Writing dummy "cz_solid_80/fvSolution"
Mapping fields
Mapping field cellToRegion
Mapping field k
Mapping field nut
Mapping field theta
Mapping field p
Mapping field epsilon
Mapping field U
Deleting empty patches
Writing new mesh
Writing addressing to base mesh
Writing map pointRegionAddressing from region80 points back to base mesh.
Writing map faceRegionAddressing from region80 faces back to base mesh.
Writing map cellRegionAddressing from region80 cells back to base mesh.
Writing map boundaryRegionAddressing from region80 boundary back to base mesh.

Region 81
-------- 
Creating mesh for region 81 cz_solid_81
Testing:"/home/links/jjw230/Optimisation_second_draft/Default/system/cz_solid_81/fvSchemes"
Writing dummy "cz_solid_81/fvSchemes"
Writing dummy "cz_solid_81/fvSolution"
Mapping fields
Mapping field cellToRegion
Mapping field k
Mapping field nut
Mapping field theta
Mapping field p
Mapping field epsilon
Mapping field U
Deleting empty patches
Writing new mesh
Writing addressing to base mesh
Writing map pointRegionAddressing from region81 points back to base mesh.
Writing map faceRegionAddressing from region81 faces back to base mesh.
Writing map cellRegionAddressing from region81 cells back to base mesh.
Writing map boundaryRegionAddressing from region81 boundary back to base mesh.

Region 82
-------- 
Creating mesh for region 82 cz_solid_82
Testing:"/home/links/jjw230/Optimisation_second_draft/Default/system/cz_solid_82/fvSchemes"
Writing dummy "cz_solid_82/fvSchemes"
Writing dummy "cz_solid_82/fvSolution"
Mapping fields
Mapping field cellToRegion
Mapping field k
Mapping field nut
Mapping field theta
Mapping field p
Mapping field epsilon
Mapping field U
Deleting empty patches
Writing new mesh
Writing addressing to base mesh
Writing map pointRegionAddressing from region82 points back to base mesh.
Writing map faceRegionAddressing from region82 faces back to base mesh.
Writing map cellRegionAddressing from region82 cells back to base mesh.
Writing map boundaryRegionAddressing from region82 boundary back to base mesh.

Region 83
-------- 
Creating mesh for region 83 cz_solid_83
Testing:"/home/links/jjw230/Optimisation_second_draft/Default/system/cz_solid_83/fvSchemes"
Writing dummy "cz_solid_83/fvSchemes"
Writing dummy "cz_solid_83/fvSolution"
Mapping fields
Mapping field cellToRegion
Mapping field k
Mapping field nut
Mapping field theta
Mapping field p
Mapping field epsilon
Mapping field U
Deleting empty patches
Writing new mesh
Writing addressing to base mesh
Writing map pointRegionAddressing from region83 points back to base mesh.
Writing map faceRegionAddressing from region83 faces back to base mesh.
Writing map cellRegionAddressing from region83 cells back to base mesh.
Writing map boundaryRegionAddressing from region83 boundary back to base mesh.

Region 84
-------- 
Creating mesh for region 84 cz_solid_84
Testing:"/home/links/jjw230/Optimisation_second_draft/Default/system/cz_solid_84/fvSchemes"
Writing dummy "cz_solid_84/fvSchemes"
Writing dummy "cz_solid_84/fvSolution"
Mapping fields
Mapping field cellToRegion
Mapping field k
Mapping field nut
Mapping field theta
Mapping field p
Mapping field epsilon
Mapping field U
Deleting empty patches
Writing new mesh
Writing addressing to base mesh
Writing map pointRegionAddressing from region84 points back to base mesh.
Writing map faceRegionAddressing from region84 faces back to base mesh.
Writing map cellRegionAddressing from region84 cells back to base mesh.
Writing map boundaryRegionAddressing from region84 boundary back to base mesh.

Region 85
-------- 
Creating mesh for region 85 cz_solid_85
Testing:"/home/links/jjw230/Optimisation_second_draft/Default/system/cz_solid_85/fvSchemes"
Writing dummy "cz_solid_85/fvSchemes"
Writing dummy "cz_solid_85/fvSolution"
Mapping fields
Mapping field cellToRegion
Mapping field k
Mapping field nut
Mapping field theta
Mapping field p
Mapping field epsilon
Mapping field U
Deleting empty patches
Writing new mesh
Writing addressing to base mesh
Writing map pointRegionAddressing from region85 points back to base mesh.
Writing map faceRegionAddressing from region85 faces back to base mesh.
Writing map cellRegionAddressing from region85 cells back to base mesh.
Writing map boundaryRegionAddressing from region85 boundary back to base mesh.

Region 86
-------- 
Creating mesh for region 86 cz_solid_86
Testing:"/home/links/jjw230/Optimisation_second_draft/Default/system/cz_solid_86/fvSchemes"
Writing dummy "cz_solid_86/fvSchemes"
Writing dummy "cz_solid_86/fvSolution"
Mapping fields
Mapping field cellToRegion
Mapping field k
Mapping field nut
Mapping field theta
Mapping field p
Mapping field epsilon
Mapping field U
Deleting empty patches
Writing new mesh
Writing addressing to base mesh
Writing map pointRegionAddressing from region86 points back to base mesh.
Writing map faceRegionAddressing from region86 faces back to base mesh.
Writing map cellRegionAddressing from region86 cells back to base mesh.
Writing map boundaryRegionAddressing from region86 boundary back to base mesh.

Region 87
-------- 
Creating mesh for region 87 cz_solid_87
Testing:"/home/links/jjw230/Optimisation_second_draft/Default/system/cz_solid_87/fvSchemes"
Writing dummy "cz_solid_87/fvSchemes"
Writing dummy "cz_solid_87/fvSolution"
Mapping fields
Mapping field cellToRegion
Mapping field k
Mapping field nut
Mapping field theta
Mapping field p
Mapping field epsilon
Mapping field U
Deleting empty patches
Writing new mesh
Writing addressing to base mesh
Writing map pointRegionAddressing from region87 points back to base mesh.
Writing map faceRegionAddressing from region87 faces back to base mesh.
Writing map cellRegionAddressing from region87 cells back to base mesh.
Writing map boundaryRegionAddressing from region87 boundary back to base mesh.

Region 88
-------- 
Creating mesh for region 88 cz_solid_88
Testing:"/home/links/jjw230/Optimisation_second_draft/Default/system/cz_solid_88/fvSchemes"
Writing dummy "cz_solid_88/fvSchemes"
Writing dummy "cz_solid_88/fvSolution"
Mapping fields
Mapping field cellToRegion
Mapping field k
Mapping field nut
Mapping field theta
Mapping field p
Mapping field epsilon
Mapping field U
Deleting empty patches
Writing new mesh
Writing addressing to base mesh
Writing map pointRegionAddressing from region88 points back to base mesh.
Writing map faceRegionAddressing from region88 faces back to base mesh.
Writing map cellRegionAddressing from region88 cells back to base mesh.
Writing map boundaryRegionAddressing from region88 boundary back to base mesh.

Region 89
-------- 
Creating mesh for region 89 cz_solid_89
Testing:"/home/links/jjw230/Optimisation_second_draft/Default/system/cz_solid_89/fvSchemes"
Writing dummy "cz_solid_89/fvSchemes"
Writing dummy "cz_solid_89/fvSolution"
Mapping fields
Mapping field cellToRegion
Mapping field k
Mapping field nut
Mapping field theta
Mapping field p
Mapping field epsilon
Mapping field U
Deleting empty patches
Writing new mesh
Writing addressing to base mesh
Writing map pointRegionAddressing from region89 points back to base mesh.
Writing map faceRegionAddressing from region89 faces back to base mesh.
Writing map cellRegionAddressing from region89 cells back to base mesh.
Writing map boundaryRegionAddressing from region89 boundary back to base mesh.

Region 90
-------- 
Creating mesh for region 90 cz_solid_90
Testing:"/home/links/jjw230/Optimisation_second_draft/Default/system/cz_solid_90/fvSchemes"
Writing dummy "cz_solid_90/fvSchemes"
Writing dummy "cz_solid_90/fvSolution"
Mapping fields
Mapping field cellToRegion
Mapping field k
Mapping field nut
Mapping field theta
Mapping field p
Mapping field epsilon
Mapping field U
Deleting empty patches
Writing new mesh
Writing addressing to base mesh
Writing map pointRegionAddressing from region90 points back to base mesh.
Writing map faceRegionAddressing from region90 faces back to base mesh.
Writing map cellRegionAddressing from region90 cells back to base mesh.
Writing map boundaryRegionAddressing from region90 boundary back to base mesh.

Region 91
-------- 
Creating mesh for region 91 cz_solid_91
Testing:"/home/links/jjw230/Optimisation_second_draft/Default/system/cz_solid_91/fvSchemes"
Writing dummy "cz_solid_91/fvSchemes"
Writing dummy "cz_solid_91/fvSolution"
Mapping fields
Mapping field cellToRegion
Mapping field k
Mapping field nut
Mapping field theta
Mapping field p
Mapping field epsilon
Mapping field U
Deleting empty patches
Writing new mesh
Writing addressing to base mesh
Writing map pointRegionAddressing from region91 points back to base mesh.
Writing map faceRegionAddressing from region91 faces back to base mesh.
Writing map cellRegionAddressing from region91 cells back to base mesh.
Writing map boundaryRegionAddressing from region91 boundary back to base mesh.

Region 92
-------- 
Creating mesh for region 92 cz_solid_92
Testing:"/home/links/jjw230/Optimisation_second_draft/Default/system/cz_solid_92/fvSchemes"
Writing dummy "cz_solid_92/fvSchemes"
Writing dummy "cz_solid_92/fvSolution"
Mapping fields
Mapping field cellToRegion
Mapping field k
Mapping field nut
Mapping field theta
Mapping field p
Mapping field epsilon
Mapping field U
Deleting empty patches
Writing new mesh
Writing addressing to base mesh
Writing map pointRegionAddressing from region92 points back to base mesh.
Writing map faceRegionAddressing from region92 faces back to base mesh.
Writing map cellRegionAddressing from region92 cells back to base mesh.
Writing map boundaryRegionAddressing from region92 boundary back to base mesh.

Region 93
-------- 
Creating mesh for region 93 cz_solid_93
Testing:"/home/links/jjw230/Optimisation_second_draft/Default/system/cz_solid_93/fvSchemes"
Writing dummy "cz_solid_93/fvSchemes"
Writing dummy "cz_solid_93/fvSolution"
Mapping fields
Mapping field cellToRegion
Mapping field k
Mapping field nut
Mapping field theta
Mapping field p
Mapping field epsilon
Mapping field U
Deleting empty patches
Writing new mesh
Writing addressing to base mesh
Writing map pointRegionAddressing from region93 points back to base mesh.
Writing map faceRegionAddressing from region93 faces back to base mesh.
Writing map cellRegionAddressing from region93 cells back to base mesh.
Writing map boundaryRegionAddressing from region93 boundary back to base mesh.

Region 94
-------- 
Creating mesh for region 94 cz_solid_94
Testing:"/home/links/jjw230/Optimisation_second_draft/Default/system/cz_solid_94/fvSchemes"
Writing dummy "cz_solid_94/fvSchemes"
Writing dummy "cz_solid_94/fvSolution"
Mapping fields
Mapping field cellToRegion
Mapping field k
Mapping field nut
Mapping field theta
Mapping field p
Mapping field epsilon
Mapping field U
Deleting empty patches
Writing new mesh
Writing addressing to base mesh
Writing map pointRegionAddressing from region94 points back to base mesh.
Writing map faceRegionAddressing from region94 faces back to base mesh.
Writing map cellRegionAddressing from region94 cells back to base mesh.
Writing map boundaryRegionAddressing from region94 boundary back to base mesh.

Region 95
-------- 
Creating mesh for region 95 cz_solid_95
Testing:"/home/links/jjw230/Optimisation_second_draft/Default/system/cz_solid_95/fvSchemes"
Writing dummy "cz_solid_95/fvSchemes"
Writing dummy "cz_solid_95/fvSolution"
Mapping fields
Mapping field cellToRegion
Mapping field k
Mapping field nut
Mapping field theta
Mapping field p
Mapping field epsilon
Mapping field U
Deleting empty patches
Writing new mesh
Writing addressing to base mesh
Writing map pointRegionAddressing from region95 points back to base mesh.
Writing map faceRegionAddressing from region95 faces back to base mesh.
Writing map cellRegionAddressing from region95 cells back to base mesh.
Writing map boundaryRegionAddressing from region95 boundary back to base mesh.

Region 96
-------- 
Creating mesh for region 96 cz_solid_96
Testing:"/home/links/jjw230/Optimisation_second_draft/Default/system/cz_solid_96/fvSchemes"
Writing dummy "cz_solid_96/fvSchemes"
Writing dummy "cz_solid_96/fvSolution"
Mapping fields
Mapping field cellToRegion
Mapping field k
Mapping field nut
Mapping field theta
Mapping field p
Mapping field epsilon
Mapping field U
Deleting empty patches
Writing new mesh
Writing addressing to base mesh
Writing map pointRegionAddressing from region96 points back to base mesh.
Writing map faceRegionAddressing from region96 faces back to base mesh.
Writing map cellRegionAddressing from region96 cells back to base mesh.
Writing map boundaryRegionAddressing from region96 boundary back to base mesh.

Region 97
-------- 
Creating mesh for region 97 cz_solid_97
Testing:"/home/links/jjw230/Optimisation_second_draft/Default/system/cz_solid_97/fvSchemes"
Writing dummy "cz_solid_97/fvSchemes"
Writing dummy "cz_solid_97/fvSolution"
Mapping fields
Mapping field cellToRegion
Mapping field k
Mapping field nut
Mapping field theta
Mapping field p
Mapping field epsilon
Mapping field U
Deleting empty patches
Writing new mesh
Writing addressing to base mesh
Writing map pointRegionAddressing from region97 points back to base mesh.
Writing map faceRegionAddressing from region97 faces back to base mesh.
Writing map cellRegionAddressing from region97 cells back to base mesh.
Writing map boundaryRegionAddressing from region97 boundary back to base mesh.

Region 98
-------- 
Creating mesh for region 98 cz_solid_98
Testing:"/home/links/jjw230/Optimisation_second_draft/Default/system/cz_solid_98/fvSchemes"
Writing dummy "cz_solid_98/fvSchemes"
Writing dummy "cz_solid_98/fvSolution"
Mapping fields
Mapping field cellToRegion
Mapping field k
Mapping field nut
Mapping field theta
Mapping field p
Mapping field epsilon
Mapping field U
Deleting empty patches
Writing new mesh
Writing addressing to base mesh
Writing map pointRegionAddressing from region98 points back to base mesh.
Writing map faceRegionAddressing from region98 faces back to base mesh.
Writing map cellRegionAddressing from region98 cells back to base mesh.
Writing map boundaryRegionAddressing from region98 boundary back to base mesh.

Region 99
-------- 
Creating mesh for region 99 cz_solid_99
Testing:"/home/links/jjw230/Optimisation_second_draft/Default/system/cz_solid_99/fvSchemes"
Writing dummy "cz_solid_99/fvSchemes"
Writing dummy "cz_solid_99/fvSolution"
Mapping fields
Mapping field cellToRegion
Mapping field k
Mapping field nut
Mapping field theta
Mapping field p
Mapping field epsilon
Mapping field U
Deleting empty patches
Writing new mesh
Writing addressing to base mesh
Writing map pointRegionAddressing from region99 points back to base mesh.
Writing map faceRegionAddressing from region99 faces back to base mesh.
Writing map cellRegionAddressing from region99 cells back to base mesh.
Writing map boundaryRegionAddressing from region99 boundary back to base mesh.

Region 100
-------- 
Creating mesh for region 100 fluid
Testing:"/home/links/jjw230/Optimisation_second_draft/Default/system/fluid/fvSchemes"
Writing dummy "fluid/fvSchemes"
Writing dummy "fluid/fvSolution"
Mapping fields
Mapping field cellToRegion
Mapping field k
Mapping field nut
Mapping field theta
Mapping field p
Mapping field epsilon
Mapping field U
Deleting empty patches
Writing new mesh
Writing addressing to base mesh
Writing map pointRegionAddressing from region100 points back to base mesh.
Writing map faceRegionAddressing from region100 faces back to base mesh.
Writing map cellRegionAddressing from region100 cells back to base mesh.
Writing map boundaryRegionAddressing from region100 boundary back to base mesh.
End

/*---------------------------------------------------------------------------*\
  =========                 |
  \\      /  F ield         | OpenFOAM: The Open Source CFD Toolbox
   \\    /   O peration     | Website:  https://openfoam.org
    \\  /    A nd           | Version:  6
     \\/     M anipulation  |
\*---------------------------------------------------------------------------*/
Build  : 6
Exec   : decomposePar
Date   : Aug 06 2020
Time   : 15:15:14
Host   : "emps-ugmat1"
PID    : 6314
I/O    : uncollated
Case   : /home/links/jjw230/Optimisation_second_draft/Default
nProcs : 1
sigFpe : Enabling floating point exception trapping (FOAM_SIGFPE).
fileModificationChecking : Monitoring run-time modified files using timeStampMaster (fileModificationSkew 10)
allowSystemOperations : Allowing user-supplied system call operations

// * * * * * * * * * * * * * * * * * * * * * * * * * * * * * * * * * * * * * //
Create time



Decomposing mesh region0

Create mesh

Calculating distribution of cells
Selecting decompositionMethod hierarchical

Finished decomposition in 0.91 s

Calculating original mesh data

Distributing cells to processors

Distributing faces to processors

Distributing points to processors

Constructing processor meshes
Reading hexRef8 data : cellLevel
Reading hexRef8 data : pointLevel
Reading hexRef8 data : level0Edge

Processor 0
    Number of cells = 243370
    Number of faces shared with processor 1 = 7576
    Number of processor patches = 1
    Number of processor faces = 7576
    Number of boundary faces = 14107

Processor 1
    Number of cells = 243370
    Number of faces shared with processor 0 = 7576
    Number of faces shared with processor 2 = 7325
    Number of processor patches = 2
    Number of processor faces = 14901
    Number of boundary faces = 17546

Processor 2
    Number of cells = 243370
    Number of faces shared with processor 1 = 7325
    Number of faces shared with processor 3 = 7486
    Number of processor patches = 2
    Number of processor faces = 14811
    Number of boundary faces = 21234

Processor 3
    Number of cells = 243373
    Number of faces shared with processor 2 = 7486
    Number of processor patches = 1
    Number of processor faces = 7486
    Number of boundary faces = 35403

Number of processor faces = 22387
Max number of cells = 243373 (0.000924515% above average 243371)
Max number of processor patches = 2 (33.3333% above average 1.5)
Max number of faces between processors = 14901 (33.1219% above average 11193.5)

Time = 0

Processor 0: field transfer
Processor 1: field transfer
Processor 2: field transfer
Processor 3: field transfer

End

