/*---------------------------------------------------------------------------*\
  =========                 |
  \\      /  F ield         | OpenFOAM: The Open Source CFD Toolbox
   \\    /   O peration     | Website:  https://openfoam.org
    \\  /    A nd           | Version:  6
     \\/     M anipulation  |
\*---------------------------------------------------------------------------*/
Build  : 6
Exec   : bouSimpleFoam -parallel
Date   : Aug 06 2020
Time   : 17:30:36
Host   : "emps-ugmat1"
PID    : 22521
I/O    : uncollated
Case   : /home/links/jjw230/Optimisation_second_draft/Default
nProcs : 4
Slaves : 
3
(
"emps-ugmat1.22522"
"emps-ugmat1.22523"
"emps-ugmat1.22524"
)

Pstream initialized with:
    floatTransfer      : 0
    nProcsSimpleSum    : 0
    commsType          : nonBlocking
    polling iterations : 0
sigFpe : Enabling floating point exception trapping (FOAM_SIGFPE).
fileModificationChecking : Monitoring run-time modified files using timeStampMaster (fileModificationSkew 10)
allowSystemOperations : Allowing user-supplied system call operations

// * * * * * * * * * * * * * * * * * * * * * * * * * * * * * * * * * * * * * //
Create time

Create mesh for time = 0


SIMPLE: Convergence criteria found
        p: tolerance 0.001
        U: tolerance 0.001
        "(k|epsilon)": tolerance 0.001
        theta: tolerance 0.001

Reading field p

Reading field U

Reading field theta

Reading/calculating face flux field phi

Selecting incompressible transport model Newtonian
Selecting turbulence model type RAS
Selecting RAS turbulence model RNGkEpsilon
RAS
{
    RASModel        RNGkEpsilon;
    turbulence      on;
    printCoeffs     on;
    Cmu             0.0845;
    C1              1.42;
    C2              1.68;
    C3        mpirun: abort is already in progress...hit ctrl-c again to forcibly terminate

        4.38;
    beta            0.012;
}

No MRF models present

Creating finite volume options from "system/fvOptions"

Selecting finite volume options model type explicitPorositySource
    Source: source0
    - selecting cells using cellZone cz_solid_0
    - selected 2072 cell(s) with volume 0.00214219
Porosity region source0:
    selecting model: DarcyForchheimer
    creating porous zone: cz_solid_0
Selecting finite volume options model type explicitPorositySource
    Source: source1
    - selecting cells using cellZone cz_solid_1
    - selected 2082 cell(s) with volume 0.00214478
Porosity region source1:
    selecting model: DarcyForchheimer
    creating porous zone: cz_solid_1
Selecting finite volume options model type explicitPorositySource
    Source: source2
    - selecting cells using cellZone cz_solid_2
    - selected 2030 cell(s) with volume 0.00214182
Porosity region source2:
    selecting model: DarcyForchheimer
    creating porous zone: cz_solid_2
Selecting finite volume options model type explicitPorositySource
    Source: source3
    - selecting cells using cellZone cz_solid_3
    - selected 1925 cell(s) with volume 0.00214374
Porosity region source3:
    selecting model: DarcyForchheimer
    creating porous zone: cz_solid_3
Selecting finite volume options model type explicitPorositySource
    Source: source4
    - selecting cells using cellZone cz_solid_4
    - selected 1344 cell(s) with volume 0.00213915
Porosity region source4:
    selecting model: DarcyForchheimer
    creating porous zone: cz_solid_4
Selecting finite volume options model type explicitPorositySource
    Source: source5
    - selecting cells using cellZone cz_solid_5
    - selected 2044 cell(s) with volume 0.00214213
Porosity region source5:
    selecting model: DarcyForchheimer
    creating porous zone: cz_solid_5
Selecting finite volume options model type explicitPorositySource
    Source: source6
    - selecting cells using cellZone cz_solid_6
    - selected 1960 cell(s) with volume 0.00214343
Porosity region source6:
    selecting model: DarcyForchheimer
    creating porous zone: cz_solid_6
Selecting finite volume options model type explicitPorositySource
    Source: source7
    - selecting cells using cellZone cz_solid_7
    - selected 2027 cell(s) with volume 0.00214435
Porosity region source7:
    selecting model: DarcyForchheimer
    creating porous zone: cz_solid_7
Selecting finite volume options model type explicitPorositySource
    Source: source8
    - selecting cells using cellZone cz_solid_8
    - selected 1456 cell(s) with volume 0.00213929
Porosity region source8:
    selecting model: DarcyForchheimer
    creating porous zone: cz_solid_8
Selecting finite volume options model type explicitPorositySource
    Source: source9
    - selecting cells using cellZone cz_solid_9
    - selected 2016 cell(s) with volume 0.00214421
Porosity region source9:
    selecting model: DarcyForchheimer
    creating porous zone: cz_solid_9
Selecting finite volume options model type explicitPorositySource
    Source: source10
    - selecting cells using cellZone cz_solid_10
    - selected 2017 cell(s) with volume 0.00214456
Porosity region source10:
    selecting model: DarcyForchheimer
    creating porous zone: cz_solid_10
Selecting finite volume options model type explicitPorositySource
    Source: source11
    - selecting cells using cellZone cz_solid_11
    - selected 2072 cell(s) with volume 0.00214148
Porosity region source11:
    selecting model: DarcyForchheimer
    creating porous zone: cz_solid_11
Selecting finite volume options model type explicitPorositySource
    Source: source12
    - selecting cells using cellZone cz_solid_12
    - selected 2149 cell(s) with volume 0.00214455
Porosity region source12:
    selecting model: DarcyForchheimer
    creating porous zone: cz_solid_12
Selecting finite volume options model type explicitPorositySource
    Source: source13
    - selecting cells using cellZone cz_solid_13
    - selected 1797 cell(s) with volume 0.00214272
Porosity region source13:
    selecting model: DarcyForchheimer
    creating porous zone: cz_solid_13
Selecting finite volume options model type explicitPorositySource
    Source: source14
    - selecting cells using cellZone cz_solid_14
    - selected 1915 cell(s) with volume 0.0021454
Porosity region source14:
    selecting model: DarcyForchheimer
    creating porous zone: cz_solid_14
Selecting finite volume options model type explicitPorositySource
    Source: source15
    - selecting cells using cellZone cz_solid_15
    - selected 1938 cell(s) with volume 0.00214263
Porosity region source15:
    selecting model: DarcyForchheimer
    creating porous zone: cz_solid_15
Selecting finite volume options model type explicitPorositySource
    Source: source16
    - selecting cells using cellZone cz_solid_16
    - selected 1789 cell(s) with volume 0.00214189
Porosity region source16:
    selecting model: DarcyForchheimer
    creating porous zone: cz_solid_16
Selecting finite volume options model type explicitPorositySource
    Source: source17
    - selecting cells using cellZone cz_solid_17
    - selected 1906 cell(s) with volume 0.00213781
Porosity region source17:
    selecting model: DarcyForchheimer
    creating porous zone: cz_solid_17
Selecting finite volume options model type explicitPorositySource
    Source: source18
    - selecting cells using cellZone cz_solid_18
    - selected 1915 cell(s) with volume 0.00214532
Porosity region source18:
    selecting model: DarcyForchheimer
    creating porous zone: cz_solid_18
Selecting finite volume options model type explicitPorositySource
    Source: source19
    - selecting cells using cellZone cz_solid_19
    - selected 1918 cell(s) with volume 0.00214434
Porosity region source19:
    selecting model: DarcyForchheimer
    creating porous zone: cz_solid_19
Selecting finite volume options model type explicitPorositySource
    Source: source20
    - selecting cells using cellZone cz_solid_20
    - selected 2192 cell(s) with volume 0.00214222
Porosity region source20:
    selecting model: DarcyForchheimer
    creating porous zone: cz_solid_20
Selecting finite volume options model type explicitPorositySource
    Source: source21
    - selecting cells using cellZone cz_solid_21
    - selected 2192 cell(s) with volume 0.00214387
Porosity region source21:
    selecting model: DarcyForchheimer
    creating porous zone: cz_solid_21
Selecting finite volume options model type explicitPorositySource
    Source: source22
    - selecting cells using cellZone cz_solid_22
    - selected 2150 cell(s) with volume 0.00214204
Porosity region source22:
    selecting model: DarcyForchheimer
    creating porous zone: cz_solid_22
Selecting finite volume options model type explicitPorositySource
    Source: source23
    - selecting cells using cellZone cz_solid_23
    - selected 2044 cell(s) with volume 0.00214383
Porosity region source23:
    selecting model: DarcyForchheimer
    creating porous zone: cz_solid_23
Selecting finite volume options model type explicitPorositySource
    Source: source24
    - selecting cells using cellZone cz_solid_24
    - selected 1436 cell(s) with volume 0.00213934
Porosity region source24:
    selecting model: DarcyForchheimer
    creating porous zone: cz_solid_24
Selecting finite volume options model type explicitPorositySource
    Source: source25
    - selecting cells using cellZone cz_solid_25
    - selected 2136 cell(s) with volume 0.00214237
Porosity region source25:
    selecting model: DarcyForchheimer
    creating porous zone: cz_solid_25
Selecting finite volume options model type explicitPorositySource
    Source: source26
    - selecting cells using cellZone cz_solid_26
    - selected 2080 cell(s) with volume 0.00214354
Porosity region source26:
    selecting model: DarcyForchheimer
    creating porous zone: cz_solid_26
Selecting finite volume options model type explicitPorositySource
    Source: source27
    - selecting cells using cellZone cz_solid_27
    - selected 2122 cell(s) with volume 0.00214401
Porosity region source27:
    selecting model: DarcyForchheimer
    creating porous zone: cz_solid_27
Selecting finite volume options model type explicitPorositySource
    Source: source28
    - selecting cells using cellZone cz_solid_28
    - selected 1548 cell(s) with volume 0.00213984
Porosity region source28:
    selecting model: DarcyForchheimer
    creating porous zone: cz_solid_28
Selecting finite volume options model type explicitPorositySource
    Source: source29
    - selecting cells using cellZone cz_solid_29
    - selected 2080 cell(s) with volume 0.00214403
Porosity region source29:
    selecting model: DarcyForchheimer
    creating porous zone: cz_solid_29
Selecting finite volume options model type explicitPorositySource
    Source: source30
    - selecting cells using cellZone cz_solid_30
    - selected 2114 cell(s) with volume 0.00214494
Porosity region source30:
    selecting model: DarcyForchheimer
    creating porous zone: cz_solid_30
Selecting finite volume options model type explicitPorositySource
    Source: source31
    - selecting cells using cellZone cz_solid_31
    - selected 2192 cell(s) with volume 0.00214166
Porosity region source31:
    selecting model: DarcyForchheimer
    creating porous zone: cz_solid_31
Selecting finite volume options model type explicitPorositySource
    Source: source32
    - selecting cells using cellZone cz_solid_32
    - selected 2268 cell(s) with volume 0.00214493
Porosity region source32:
    selecting model: DarcyForchheimer
    creating porous zone: cz_solid_32
Selecting finite volume options model type explicitPorositySource
    Source: source33
    - selecting cells using cellZone cz_solid_33
    - selected 1858 cell(s) with volume 0.00214278
Porosity region source33:
    selecting model: DarcyForchheimer
    creating porous zone: cz_solid_33
Selecting finite volume options model type explicitPorositySource
    Source: source34
    - selecting cells using cellZone cz_solid_34
    - selected 1994 cell(s) with volume 0.00214507
Porosity region source34:
    selecting model: DarcyForchheimer
    creating porous zone: cz_solid_34
Selecting finite volume options model type explicitPorositySource
    Source: source35
    - selecting cells using cellZone cz_solid_35
    - selected 2080 cell(s) with volume 0.0021433
Porosity region source35:
    selecting model: DarcyForchheimer
    creating porous zone: cz_solid_35
Selecting finite volume options model type explicitPorositySource
    Source: source36
    - selecting cells using cellZone cz_solid_36
    - selected 1858 cell(s) with volume 0.00214239
Porosity region source36:
    selecting model: DarcyForchheimer
    creating porous zone: cz_solid_36
Selecting finite volume options model type explicitPorositySource
    Source: source37
    - selecting cells using cellZone cz_solid_37
    - selected 2022 cell(s) with volume 0.00213926
Porosity region source37:
    selecting model: DarcyForchheimer
    creating porous zone: cz_solid_37
Selecting finite volume options model type explicitPorositySource
    Source: source38
    - selecting cells using cellZone cz_solid_38
    - selected 1978 cell(s) with volume 0.00214512
Porosity region source38:
    selecting model: DarcyForchheimer
    creating porous zone: cz_solid_38
Selecting finite volume options model type explicitPorositySource
    Source: source39
    - selecting cells using cellZone cz_solid_39
    - selected 2010 cell(s) with volume 0.00214491
Porosity region source39:
    selecting model: DarcyForchheimer
    creating porous zone: cz_solid_39
Selecting finite volume options model type explicitPorositySource
    Source: source40
    - selecting cells using cellZone cz_solid_40
    - selected 2072 cell(s) with volume 0.00214203
Porosity region source40:
    selecting model: DarcyForchheimer
    creating porous zone: cz_solid_40
Selecting finite volume options model type explicitPorositySource
    Source: source41
    - selecting cells using cellZone cz_solid_41
    - selected 2100 cell(s) with volume 0.00214378
Porosity region source41:
    selecting model: DarcyForchheimer
    creating porous zone: cz_solid_41
Selecting finite volume options model type explicitPorositySource
    Source: source42
    - selecting cells using cellZone cz_solid_42
    - selected 2030 cell(s) with volume 0.00214187
Porosity region source42:
    selecting model: DarcyForchheimer
    creating porous zone: cz_solid_42
Selecting finite volume options model type explicitPorositySource
    Source: source43
    - selecting cells using cellZone cz_solid_43
    - selected 1925 cell(s) with volume 0.00214369
Porosity region source43:
    selecting model: DarcyForchheimer
    creating porous zone: cz_solid_43
Selecting finite volume options model type explicitPorositySource
    Source: source44
    - selecting cells using cellZone cz_solid_44
    - selected 1344 cell(s) with volume 0.00213908
Porosity region source44:
    selecting model: DarcyForchheimer
    creating porous zone: cz_solid_44
Selecting finite volume options model type explicitPorositySource
    Source: source45
    - selecting cells using cellZone cz_solid_45
    - selected 2044 cell(s) with volume 0.00214222
Porosity region source45:
    selecting model: DarcyForchheimer
    creating porous zone: cz_solid_45
Selecting finite volume options model type explicitPorositySource
    Source: source46
    - selecting cells using cellZone cz_solid_46
    - selected 1960 cell(s) with volume 0.0021436
Porosity region source46:
    selecting model: DarcyForchheimer
    creating porous zone: cz_solid_46
Selecting finite volume options model type explicitPorositySource
    Source: source47
    - selecting cells using cellZone cz_solid_47
    - selected 2030 cell(s) with volume 0.00214386
Porosity region source47:
    selecting model: DarcyForchheimer
    creating porous zone: cz_solid_47
Selecting finite volume options model type explicitPorositySource
    Source: source48
    - selecting cells using cellZone cz_solid_48
    - selected 1456 cell(s) with volume 0.00213951
Porosity region source48:
    selecting model: DarcyForchheimer
    creating porous zone: cz_solid_48
Selecting finite volume options model type explicitPorositySource
    Source: source49
    - selecting cells using cellZone cz_solid_49
    - selected 1960 cell(s) with volume 0.00214366
Porosity region source49:
    selecting model: DarcyForchheimer
    creating porous zone: cz_solid_49
Selecting finite volume options model type explicitPorositySource
    Source: source50
    - selecting cells using cellZone cz_solid_50
    - selected 1993 cell(s) with volume 0.00214493
Porosity region source50:
    selecting model: DarcyForchheimer
    creating porous zone: cz_solid_50
Selecting finite volume options model type explicitPorositySource
    Source: source51
    - selecting cells using cellZone cz_solid_51
    - selected 2072 cell(s) with volume 0.00214138
Porosity region source51:
    selecting model: DarcyForchheimer
    creating porous zone: cz_solid_51
Selecting finite volume options model type explicitPorositySource
    Source: source52
    - selecting cells using cellZone cz_solid_52
    - selected 2149 cell(s) with volume 0.00214479
Porosity region source52:
    selecting model: DarcyForchheimer
    creating porous zone: cz_solid_52
Selecting finite volume options model type explicitPorositySource
    Source: source53
    - selecting cells using cellZone cz_solid_53
    - selected 1801 cell(s) with volume 0.00214252
Porosity region source53:
    selecting model: DarcyForchheimer
    creating porous zone: cz_solid_53
Selecting finite volume options model type explicitPorositySource
    Source: source54
    - selecting cells using cellZone cz_solid_54
    - selected 1894 cell(s) with volume 0.00214485
Porosity region source54:
    selecting model: DarcyForchheimer
    creating porous zone: cz_solid_54
Selecting finite volume options model type explicitPorositySource
    Source: source55
    - selecting cells using cellZone cz_solid_55
    - selected 1938 cell(s) with volume 0.00214276
Porosity region source55:
    selecting model: DarcyForchheimer
    creating porous zone: cz_solid_55
Selecting finite volume options model type explicitPorositySource
    Source: source56
    - selecting cells using cellZone cz_solid_56
    - selected 1793 cell(s) with volume 0.00214228
Porosity region source56:
    selecting model: DarcyForchheimer
    creating porous zone: cz_solid_56
Selecting finite volume options model type explicitPorositySource
    Source: source57
    - selecting cells using cellZone cz_solid_57
    - selected 1896 cell(s) with volume 0.00213812
Porosity region source57:
    selecting model: DarcyForchheimer
    creating porous zone: cz_solid_57
Selecting finite volume options model type explicitPorositySource
    Source: source58
    - selecting cells using cellZone cz_solid_58
    - selected 1894 cell(s) with volume 0.00214472
Porosity region source58:
    selecting model: DarcyForchheimer
    creating porous zone: cz_solid_58
Selecting finite volume options model type explicitPorositySource
    Source: source59
    - selecting cells using cellZone cz_solid_59
    - selected 1918 cell(s) with volume 0.00214464
Porosity region source59:
    selecting model: DarcyForchheimer
    creating porous zone: cz_solid_59
Selecting finite volume options model type explicitPorositySource
    Source: source60
    - selecting cells using cellZone cz_solid_60
    - selected 2100 cell(s) with volume 0.00214191
Porosity region source60:
    selecting model: DarcyForchheimer
    creating porous zone: cz_solid_60
Selecting finite volume options model type explicitPorositySource
    Source: source61
    - selecting cells using cellZone cz_solid_61
    - selected 2100 cell(s) with volume 0.00214367
Porosity region source61:
    selecting model: DarcyForchheimer
    creating porous zone: cz_solid_61
Selecting finite volume options model type explicitPorositySource
    Source: source62
    - selecting cells using cellZone cz_solid_62
    - selected 2058 cell(s) with volume 0.0021416
Porosity region source62:
    selecting model: DarcyForchheimer
    creating porous zone: cz_solid_62
Selecting finite volume options model type explicitPorositySource
    Source: source63
    - selecting cells using cellZone cz_solid_63
    - selected 1946 cell(s) with volume 0.00214339
Porosity region source63:
    selecting model: DarcyForchheimer
    creating porous zone: cz_solid_63
Selecting finite volume options model type explicitPorositySource
    Source: source64
    - selecting cells using cellZone cz_solid_64
    - selected 1322 cell(s) with volume 0.00213893
Porosity region source64:
    selecting model: DarcyForchheimer
    creating porous zone: cz_solid_64
Selecting finite volume options model type explicitPorositySource
    Source: source65
    - selecting cells using cellZone cz_solid_65
    - selected 2044 cell(s) with volume 0.00214203
Porosity region source65:
    selecting model: DarcyForchheimer
    creating porous zone: cz_solid_65
Selecting finite volume options model type explicitPorositySource
    Source: source66
    - selecting cells using cellZone cz_solid_66
    - selected 1988 cell(s) with volume 0.00214333
Porosity region source66:
    selecting model: DarcyForchheimer
    creating porous zone: cz_solid_66
Selecting finite volume options model type explicitPorositySource
    Source: source67
    - selecting cells using cellZone cz_solid_67
    - selected 2037 cell(s) with volume 0.00214356
Porosity region source67:
    selecting model: DarcyForchheimer
    creating porous zone: cz_solid_67
Selecting finite volume options model type explicitPorositySource
    Source: source68
    - selecting cells using cellZone cz_solid_68
    - selected 1434 cell(s) with volume 0.00213925
Porosity region source68:
    selecting model: DarcyForchheimer
    creating porous zone: cz_solid_68
Selecting finite volume options model type explicitPorositySource
    Source: source69
    - selecting cells using cellZone cz_solid_69
    - selected 2016 cell(s) with volume 0.00214367
Porosity region source69:
    selecting model: DarcyForchheimer
    creating porous zone: cz_solid_69
Selecting finite volume options model type explicitPorositySource
    Source: source70
    - selecting cells using cellZone cz_solid_70
    - selected 2028 cell(s) with volume 0.00214494
Porosity region source70:
    selecting model: DarcyForchheimer
    creating porous zone: cz_solid_70
Selecting finite volume options model type explicitPorositySource
    Source: source71
    - selecting cells using cellZone cz_solid_71
    - selected 2093 cell(s) with volume 0.00214119
Porosity region source71:
    selecting model: DarcyForchheimer
    creating porous zone: cz_solid_71
Selecting finite volume options model type explicitPorositySource
    Source: source72
    - selecting cells using cellZone cz_solid_72
    - selected 2170 cell(s) with volume 0.00214467
Porosity region source72:
    selecting model: DarcyForchheimer
    creating porous zone: cz_solid_72
Selecting finite volume options model type explicitPorositySource
    Source: source73
    - selecting cells using cellZone cz_solid_73
    - selected 1781 cell(s) with volume 0.00214208
Porosity region source73:
    selecting model: DarcyForchheimer
    creating porous zone: cz_solid_73
Selecting finite volume options model type explicitPorositySource
    Source: source74
    - selecting cells using cellZone cz_solid_74
    - selected 1907 cell(s) with volume 0.00214476
Porosity region source74:
    selecting model: DarcyForchheimer
    creating porous zone: cz_solid_74
Selecting finite volume options model type explicitPorositySource
    Source: source75
    - selecting cells using cellZone cz_solid_75
    - selected 1988 cell(s) with volume 0.00214302
Porosity region source75:
    selecting model: DarcyForchheimer
    creating porous zone: cz_solid_75
Selecting finite volume options model type explicitPorositySource
    Source: source76
    - selecting cells using cellZone cz_solid_76
    - selected 1781 cell(s) with volume 0.00214205
Porosity region source76:
    selecting model: DarcyForchheimer
    creating porous zone: cz_solid_76
Selecting finite volume options model type explicitPorositySource
    Source: source77
    - selecting cells using cellZone cz_solid_77
    - selected 1872 cell(s) with volume 0.00213799
Porosity region source77:
    selecting model: DarcyForchheimer
    creating porous zone: cz_solid_77
Selecting finite volume options model type explicitPorositySource
    Source: source78
    - selecting cells using cellZone cz_solid_78
    - selected 1900 cell(s) with volume 0.00214459
Porosity region source78:
    selecting model: DarcyForchheimer
    creating porous zone: cz_solid_78
Selecting finite volume options model type explicitPorositySource
    Source: source79
    - selecting cells using cellZone cz_solid_79
    - selected 1925 cell(s) with volume 0.00214438
Porosity region source79:
    selecting model: DarcyForchheimer
    creating porous zone: cz_solid_79
Selecting finite volume options model type explicitPorositySource
    Source: source80
    - selecting cells using cellZone cz_solid_80
    - selected 2123 cell(s) with volume 0.00214165
Porosity region source80:
    selecting model: DarcyForchheimer
    creating porous zone: cz_solid_80
Selecting finite volume options model type explicitPorositySource
    Source: source81
    - selecting cells using cellZone cz_solid_81
    - selected 2123 cell(s) with volume 0.00214361
Porosity region source81:
    selecting model: DarcyForchheimer
    creating porous zone: cz_solid_81
Selecting finite volume options model type explicitPorositySource
    Source: source82
    - selecting cells using cellZone cz_solid_82
    - selected 2084 cell(s) with volume 0.00214156
Porosity region source82:
    selecting model: DarcyForchheimer
    creating porous zone: cz_solid_82
Selecting finite volume options model type explicitPorositySource
    Source: source83
    - selecting cells using cellZone cz_solid_83
    - selected 1976 cell(s) with volume 0.00214326
Porosity region source83:
    selecting model: DarcyForchheimer
    creating porous zone: cz_solid_83
Selecting finite volume options model type explicitPorositySource
    Source: source84
    - selecting cells using cellZone cz_solid_84
    - selected 1400 cell(s) with volume 0.00213957
Porosity region source84:
    selecting model: DarcyForchheimer
    creating porous zone: cz_solid_84
Selecting finite volume options model type explicitPorositySource
    Source: source85
    - selecting cells using cellZone cz_solid_85
    - selected 2036 cell(s) with volume 0.0021419
Porosity region source85:
    selecting model: DarcyForchheimer
    creating porous zone: cz_solid_85
Selecting finite volume options model type explicitPorositySource
    Source: source86
    - selecting cells using cellZone cz_solid_86
    - selected 2025 cell(s) with volume 0.00214281
Porosity region source86:
    selecting model: DarcyForchheimer
    creating porous zone: cz_solid_86
Selecting finite volume options model type explicitPorositySource
    Source: source87
    - selecting cells using cellZone cz_solid_87
    - selected 2069 cell(s) with volume 0.00214351
Porosity region source87:
    selecting model: DarcyForchheimer
    creating porous zone: cz_solid_87
Selecting finite volume options model type explicitPorositySource
    Source: source88
    - selecting cells using cellZone cz_solid_88
    - selected 1505 cell(s) with volume 0.00214001
Porosity region source88:
    selecting model: DarcyForchheimer
    creating porous zone: cz_solid_88
Selecting finite volume options model type explicitPorositySource
    Source: source89
    - selecting cells using cellZone cz_solid_89
    - selected 2053 cell(s) with volume 0.00214311
Porosity region source89:
    selecting model: DarcyForchheimer
    creating porous zone: cz_solid_89
Selecting finite volume options model type explicitPorositySource
    Source: source90
    - selecting cells using cellZone cz_solid_90
    - selected 2054 cell(s) with volume 0.00214454
Porosity region source90:
    selecting model: DarcyForchheimer
    creating porous zone: cz_solid_90
Selecting finite volume options model type explicitPorositySource
    Source: source91
    - selecting cells using cellZone cz_solid_91
    - selected 2116 cell(s) with volume 0.00214101
Porosity region source91:
    selecting model: DarcyForchheimer
    creating porous zone: cz_solid_91
Selecting finite volume options model type explicitPorositySource
    Source: source92
    - selecting cells using cellZone cz_solid_92
    - selected 2186 cell(s) with volume 0.00214429
Porosity region source92:
    selecting model: DarcyForchheimer
    creating porous zone: cz_solid_92
Selecting finite volume options model type explicitPorositySource
    Source: source93
    - selecting cells using cellZone cz_solid_93
    - selected 1800 cell(s) with volume 0.00214242
Porosity region source93:
    selecting model: DarcyForchheimer
    creating porous zone: cz_solid_93
Selecting finite volume options model type explicitPorositySource
    Source: source94
    - selecting cells using cellZone cz_solid_94
    - selected 1916 cell(s) with volume 0.00214488
Porosity region source94:
    selecting model: DarcyForchheimer
    creating porous zone: cz_solid_94
Selecting finite volume options model type explicitPorositySource
    Source: source95
    - selecting cells using cellZone cz_solid_95
    - selected 2014 cell(s) with volume 0.00214278
Porosity region source95:
    selecting model: DarcyForchheimer
    creating porous zone: cz_solid_95
Selecting finite volume options model type explicitPorositySource
    Source: source96
    - selecting cells using cellZone cz_solid_96
    - selected 1800 cell(s) with volume 0.00214183
Porosity region source96:
    selecting model: DarcyForchheimer
    creating porous zone: cz_solid_96
Selecting finite volume options model type explicitPorositySource
    Source: source97
    - selecting cells using cellZone cz_solid_97
    - selected 1902 cell(s) with volume 0.00213734
Porosity region source97:
    selecting model: DarcyForchheimer
    creating porous zone: cz_solid_97
Selecting finite volume options model type explicitPorositySource
    Source: source98
    - selecting cells using cellZone cz_solid_98
    - selected 1930 cell(s) with volume 0.00214451
Porosity region source98:
    selecting model: DarcyForchheimer
    creating porous zone: cz_solid_98
Selecting finite volume options model type explicitPorositySource
    Source: source99
    - selecting cells using cellZone cz_solid_99
    - selected 1937 cell(s) with volume 0.00214445
Porosity region source99:
    selecting model: DarcyForchheimer
    creating porous zone: cz_solid_99

Starting time loop

forces porousforces:
--> FOAM Warning : 
    From function Foam::labelHashSet Foam::polyBoundaryMesh::patchSet(const Foam::UList<Foam::wordRe>&, bool, bool) const
    in file meshes/polyMesh/polyBoundaryMesh/polyBoundaryMesh.C at line 798
    Cannot find any patch or group names matching solid_to_fluid
    Including porosity effects


surfaceFieldValue massFlowAtFilter_0:
    total faces  = 1654
    total area   = 0.10167




surfaceFieldValue massFlowAtFilter_1:
    total faces  = 1722
    total area   = 0.101652




surfaceFieldValue massFlowAtFilter_2:
    total faces  = 1616
    total area   = 0.101678




surfaceFieldValue massFlowAtFilter_3:
    total faces  = 1674
    total area   = 0.101748




surfaceFieldValue massFlowAtFilter_4:
    total faces  = 1414
    total area   = 0.101633




surfaceFieldValue massFlowAtFilter_5:
    total faces  = 1618
    total area   = 0.101692




surfaceFieldValue massFlowAtFilter_6:
    total faces  = 1676
    total area   = 0.101741




surfaceFieldValue massFlowAtFilter_7:
    total faces  = 1641
    total area   = 0.101663




surfaceFieldValue massFlowAtFilter_8:
    total faces  = 1414
    total area   = 0.101649




surfaceFieldValue massFlowAtFilter_9:
    total faces  = 1700
    total area   = 0.101771




surfaceFieldValue massFlowAtFilter_10:
    total faces  = 1732
    total area   = 0.101663




surfaceFieldValue massFlowAtFilter_11:
    total faces  = 1724
    total area   = 0.10163




surfaceFieldValue massFlowAtFilter_12:
    total faces  = 1722
    total area   = 0.101674




surfaceFieldValue massFlowAtFilter_13:
    total faces  = 1610
    total area   = 0.101716




surfaceFieldValue massFlowAtFilter_14:
    total faces  = 1729
    total area   = 0.101701




surfaceFieldValue massFlowAtFilter_15:
    total faces  = 1648
    total area   = 0.101659




surfaceFieldValue massFlowAtFilter_16:
    total faces  = 1604
    total area   = 0.101698




surfaceFieldValue massFlowAtFilter_17:
    total faces  = 1552
    total area   = 0.10166




surfaceFieldValue massFlowAtFilter_18:
    total faces  = 1725
    total area   = 0.101712




surfaceFieldValue massFlowAtFilter_19:
    total faces  = 1646
    total area   = 0.101725




surfaceFieldValue massFlowAtFilter_20:
    total faces  = 1696
    total area   = 0.10165




surfaceFieldValue massFlowAtFilter_21:
    total faces  = 1768
    total area   = 0.101624




surfaceFieldValue massFlowAtFilter_22:
    total faces  = 1658
    total area   = 0.101645




surfaceFieldValue massFlowAtFilter_23:
    total faces  = 1718
    total area   = 0.101655




surfaceFieldValue massFlowAtFilter_24:
    total faces  = 1460
    total area   = 0.101585




surfaceFieldValue massFlowAtFilter_25:
    total faces  = 1660
    total area   = 0.101655




surfaceFieldValue massFlowAtFilter_26:
    total faces  = 1720
    total area   = 0.101693




surfaceFieldValue massFlowAtFilter_27:
    total faces  = 1680
    total area   = 0.101624




surfaceFieldValue massFlowAtFilter_28:
    total faces  = 1460
    total area   = 0.101599




surfaceFieldValue massFlowAtFilter_29:
    total faces  = 1720
    total area   = 0.101707




surfaceFieldValue massFlowAtFilter_30:
    total faces  = 1784
    total area   = 0.101633




surfaceFieldValue massFlowAtFilter_31:
    total faces  = 1768
    total area   = 0.101641




surfaceFieldValue massFlowAtFilter_32:
    total faces  = 1766
    total area   = 0.101615




surfaceFieldValue massFlowAtFilter_33:
    total faces  = 1636
    total area   = 0.101691




surfaceFieldValue massFlowAtFilter_34:
    total faces  = 1782
    total area   = 0.10163




surfaceFieldValue massFlowAtFilter_35:
    total faces  = 1698
    total area   = 0.101616




surfaceFieldValue massFlowAtFilter_36:
    total faces  = 1636
    total area   = 0.101699




surfaceFieldValue massFlowAtFilter_37:
    total faces  = 1600
    total area   = 0.101618




surfaceFieldValue massFlowAtFilter_38:
    total faces  = 1778
    total area   = 0.10167




surfaceFieldValue massFlowAtFilter_39:
    total faces  = 1690
    total area   = 0.101663




surfaceFieldValue massFlowAtFilter_40:
    total faces  = 1654
    total area   = 0.101695




surfaceFieldValue massFlowAtFilter_41:
    total faces  = 1724
    total area   = 0.101678




surfaceFieldValue massFlowAtFilter_42:
    total faces  = 1616
    total area   = 0.101693




surfaceFieldValue massFlowAtFilter_43:
    total faces  = 1674
    total area   = 0.101779




surfaceFieldValue massFlowAtFilter_44:
    total faces  = 1414
    total area   = 0.101639




surfaceFieldValue massFlowAtFilter_45:
    total faces  = 1618
    total area   = 0.101698




surfaceFieldValue massFlowAtFilter_46:
    total faces  = 1676
    total area   = 0.101785




surfaceFieldValue massFlowAtFilter_47:
    total faces  = 1636
    total area   = 0.101694




surfaceFieldValue massFlowAtFilter_48:
    total faces  = 1414
    total area   = 0.101658




surfaceFieldValue massFlowAtFilter_49:
    total faces  = 1676
    total area   = 0.101771




surfaceFieldValue massFlowAtFilter_50:
    total faces  = 1740
    total area   = 0.101712




surfaceFieldValue massFlowAtFilter_51:
    total faces  = 1724
    total area   = 0.101701




surfaceFieldValue massFlowAtFilter_52:
    total faces  = 1722
    total area   = 0.101705




surfaceFieldValue massFlowAtFilter_53:
    total faces  = 1610
    total area   = 0.101754




surfaceFieldValue massFlowAtFilter_54:
    total faces  = 1736
    total area   = 0.10172




surfaceFieldValue massFlowAtFilter_55:
    total faces  = 1648
    total area   = 0.101694




surfaceFieldValue massFlowAtFilter_56:
    total faces  = 1604
    total area   = 0.101736




surfaceFieldValue massFlowAtFilter_57:
    total faces  = 1536
    total area   = 0.101678




surfaceFieldValue massFlowAtFilter_58:
    total faces  = 1732
    total area   = 0.101754




surfaceFieldValue massFlowAtFilter_59:
    total faces  = 1646
    total area   = 0.101734




surfaceFieldValue massFlowAtFilter_60:
    total faces  = 1654
    total area   = 0.1017




surfaceFieldValue massFlowAtFilter_61:
    total faces  = 1724
    total area   = 0.101692




surfaceFieldValue massFlowAtFilter_62:
    total faces  = 1616
    total area   = 0.101698




surfaceFieldValue massFlowAtFilter_63:
    total faces  = 1674
    total area   = 0.101788




surfaceFieldValue massFlowAtFilter_64:
    total faces  = 1400
    total area   = 0.101638




surfaceFieldValue massFlowAtFilter_65:
    total faces  = 1618
    total area   = 0.101708




surfaceFieldValue massFlowAtFilter_66:
    total faces  = 1676
    total area   = 0.101777




surfaceFieldValue massFlowAtFilter_67:
    total faces  = 1639
    total area   = 0.101713




surfaceFieldValue massFlowAtFilter_68:
    total faces  = 1400
    total area   = 0.101647




surfaceFieldValue massFlowAtFilter_69:
    total faces  = 1688
    total area   = 0.101793




surfaceFieldValue massFlowAtFilter_70:
    total faces  = 1736
    total area   = 0.101726




surfaceFieldValue massFlowAtFilter_71:
    total faces  = 1724
    total area   = 0.1017




surfaceFieldValue massFlowAtFilter_72:
    total faces  = 1722
    total area   = 0.101712




surfaceFieldValue massFlowAtFilter_73:
    total faces  = 1595
    total area   = 0.101765




surfaceFieldValue massFlowAtFilter_74:
    total faces  = 1734
    total area   = 0.101708




surfaceFieldValue massFlowAtFilter_75:
    total faces  = 1654
    total area   = 0.101721




surfaceFieldValue massFlowAtFilter_76:
    total faces  = 1595
    total area   = 0.101754




surfaceFieldValue massFlowAtFilter_77:
    total faces  = 1526
    total area   = 0.101676




surfaceFieldValue massFlowAtFilter_78:
    total faces  = 1730
    total area   = 0.101778




surfaceFieldValue massFlowAtFilter_79:
    total faces  = 1646
    total area   = 0.101742




surfaceFieldValue massFlowAtFilter_80:
    total faces  = 1661
    total area   = 0.101697




surfaceFieldValue massFlowAtFilter_81:
    total faces  = 1731
    total area   = 0.101657




surfaceFieldValue massFlowAtFilter_82:
    total faces  = 1626
    total area   = 0.101693




surfaceFieldValue massFlowAtFilter_83:
    total faces  = 1684
    total area   = 0.101721




surfaceFieldValue massFlowAtFilter_84:
    total faces  = 1446
    total area   = 0.101618




surfaceFieldValue massFlowAtFilter_85:
    total faces  = 1624
    total area   = 0.101701




surfaceFieldValue massFlowAtFilter_86:
    total faces  = 1686
    total area   = 0.101684




surfaceFieldValue massFlowAtFilter_87:
    total faces  = 1651
    total area   = 0.101701




surfaceFieldValue massFlowAtFilter_88:
    total faces  = 1446
    total area   = 0.101636




surfaceFieldValue massFlowAtFilter_89:
    total faces  = 1698
    total area   = 0.101707




surfaceFieldValue massFlowAtFilter_90:
    total faces  = 1742
    total area   = 0.101698




surfaceFieldValue massFlowAtFilter_91:
    total faces  = 1731
    total area   = 0.101644




surfaceFieldValue massFlowAtFilter_92:
    total faces  = 1729
    total area   = 0.101679




surfaceFieldValue massFlowAtFilter_93:
    total faces  = 1610
    total area   = 0.10173




surfaceFieldValue massFlowAtFilter_94:
    total faces  = 1741
    total area   = 0.101714




surfaceFieldValue massFlowAtFilter_95:
    total faces  = 1669
    total area   = 0.101687




surfaceFieldValue massFlowAtFilter_96:
    total faces  = 1610
    total area   = 0.101715




surfaceFieldValue massFlowAtFilter_97:
    total faces  = 1529
    total area   = 0.101665




surfaceFieldValue massFlowAtFilter_98:
    total faces  = 1737
    total area   = 0.101777




surfaceFieldValue massFlowAtFilter_99:
    total faces  = 1658
    total area   = 0.101724


Time = 1

DILUPBiCG:  Solving for Ux, Initial residual = 1, Final residual = 4.6778e-06, No Iterations 5
DILUPBiCG:  Solving for Uy, Initial residual = 1, Final residual = 3.42779e-06, No Iterations 7
DILUPBiCG:  Solving for Uz, Initial residual = 1, Final residual = 2.98419e-06, No Iterations 6
DICPCG:  Solving for p, Initial residual = 1, Final residual = 0.0947796, No Iterations 314
DICPCG:  Solving for p, Initial residual = 0.00366876, Final residual = 0.000266296, No Iterations 4
DICPCG:  Solving for p, Initial residual = 0.000518183, Final residual = 5.08338e-05, No Iterations 33
time step continuity errors : sum local = 0.0519685, global = -0.000328839, cumulative = -0.000328839
DILUPBiCG:  Solving for epsilon, Initial residual = 0.0486538, Final residual = 1.39684e-06, No Iterations 4
DILUPBiCG:  Solving for k, Initial residual = 1, Final residual = 8.88044e-07, No Iterations 6
ExecutionTime = 5.71 s  ClockTime = 6 s

Time = 2

DILUPBiCG:  Solving for Ux, Initial residual = 0.00011775, Final residual = 3.16803e-06, No Iterations 2
DILUPBiCG:  Solving for Uy, Initial residual = 5.20296e-05, Final residual = 9.87841e-06, No Iterations 1
DILUPBiCG:  Solving for Uz, Initial residual = 0.000109441, Final residual = 2.19528e-06, No Iterations 2
DICPCG:  Solving for p, Initial residual = 0.0130248, Final residual = 0.00127834, No Iterations 112
DICPCG:  Solving for p, Initial residual = 0.00577957, Final residual = 0.000571157, No Iterations 258
DICPCG:  Solving for p, Initial residual = 0.00457199, Final residual = 0.00045354, No Iterations 15
time step continuity errors : sum local = 0.0621706, global = -0.00020433, cumulative = -0.000533169
DILUPBiCG:  Solving for epsilon, Initial residual = 0.0139551, Final residual = 8.20946e-07, No Iterations 4
DILUPBiCG:  Solving for k, Initial residual = 0.518267, Final residual = 3.81899e-08, No Iterations 7
ExecutionTime = 9.57 s  ClockTime = 10 s

Time = 3

DILUPBiCG:  Solving for Ux, Initial residual = 1.74925e-05, Final residual = 3.03911e-06, No Iterations 1
DILUPBiCG:  Solving for Uy, Initial residual = 1.08488e-05, Final residual = 2.14249e-06, No Iterations 1
DILUPBiCG:  Solving for Uz, Initial residual = 2.67337e-05, Final residual = 8.22089e-06, No Iterations 1
DICPCG:  Solving for p, Initial residual = 0.0181793, Final residual = 0.00172974, No Iterations 292
DICPCG:  Solving for p, Initial residual = 0.00734742, Final residual = 0.000633711, No Iterations 4
DICPCG:  Solving for p, Initial residual = 0.001024, Final residual = 9.89527e-05, No Iterations 48
time step continuity errors : sum local = 0.0536096, global = 0.00040735, cumulative = -0.000125819
DILUPBiCG:  Solving for epsilon, Initial residual = 0.0181393, Final residual = 1.20543e-06, No Iterations 4
DILUPBiCG:  Solving for k, Initial residual = 0.259083, Final residual = 3.16363e-07, No Iterations 6
ExecutionTime = 13.06 s  ClockTime = 13 s

Time = 4

DILUPBiCG:  Solving for Ux, Initial residual = 4.90435e-06, Final residual = 4.90435e-06, No Iterations 0
DILUPBiCG:  Solving for Uy, Initial residual = 1.88108e-06, Final residual = 1.88108e-06, No Iterations 0
DILUPBiCG:  Solving for Uz, Initial residual = 6.28593e-06, Final residual = 6.28593e-06, No Iterations 0
DICPCG:  Solving for p, Initial residual = 0.0835323, Final residual = 0.00813289, No Iterations 298
DICPCG:  Solving for p, Initial residual = 0.00529958, Final residual = 0.00046614, No Iterations 4
DICPCG:  Solving for p, Initial residual = 0.000732713, Final residual = 7.28234e-05, No Iterations 44
time step continuity errors : sum local = 0.0368002, global = 3.17162e-06, cumulative = -0.000122647
DILUPBiCG:  Solving for epsilon, Initial residual = 0.0172998, Final residual = 5.35952e-06, No Iterations 3
DILUPBiCG:  Solving for k, Initial residual = 0.153369, Final residual = 9.97801e-09, No Iterations 7
ExecutionTime = 16.5 s  ClockTime = 16 s

Time = 5

DILUPBiCG:  Solving for Ux, Initial residual = 1.44869e-05, Final residual = 2.97173e-06, No Iterations 1
DILUPBiCG:  Solving for Uy, Initial residual = 7.94248e-06, Final residual = 7.94248e-06, No Iterations 0
DILUPBiCG:  Solving for Uz, Initial residual = 1.32776e-05, Final residual = 3.28566e-06, No Iterations 1
DICPCG:  Solving for p, Initial residual = 0.0212937, Final residual = 0.00202337, No Iterations 47
DICPCG:  Solving for p, Initial residual = 0.00661622, Final residual = 0.000633579, No Iterations 258
DICPCG:  Solving for p, Initial residual = 0.00207149, Final residual = 0.000199775, No Iterations 7
time step continuity errors : sum local = 0.0637909, global = 0.000171712, cumulative = 4.90648e-05
DILUPBiCG:  Solving for epsilon, Initial residual = 0.0147643, Final residual = 4.27614e-06, No Iterations 3
DILUPBiCG:  Solving for k, Initial residual = 0.110136, Final residual = 6.16506e-07, No Iterations 5
ExecutionTime = 19.7 s  ClockTime = 20 s

Time = 6

DILUPBiCG:  Solving for Ux, Initial residual = 1.94984e-05, Final residual = 4.44661e-06, No Iterations 1
DILUPBiCG:  Solving for Uy, Initial residual = 1.16316e-05, Final residual = 2.3717e-06, No Iterations 1
DILUPBiCG:  Solving for Uz, Initial residual = 1.49409e-05, Final residual = 4.64089e-06, No Iterations 1
DICPCG:  Solving for p, Initial residual = 0.0242748, Final residual = 0.00234986, No Iterations 285
DICPCG:  Solving for p, Initial residual = 0.00804105, Final residual = 0.000780078, No Iterations 7
DICPCG:  Solving for p, Initial residual = 0.00119005, Final residual = 0.000113517, No Iterations 55
time step continuity errors : sum local = 0.0455257, global = -0.000455945, cumulative = -0.000406881
DILUPBiCG:  Solving for epsilon, Initial residual = 0.0135925, Final residual = 4.29356e-06, No Iterations 3
DILUPBiCG:  Solving for k, Initial residual = 0.093742, Final residual = 8.40876e-07, No Iterations 5
ExecutionTime = 23.16 s  ClockTime = 23 s

Time = 7

DILUPBiCG:  Solving for Ux, Initial residual = 1.38283e-05, Final residual = 6.54285e-07, No Iterations 2
DILUPBiCG:  Solving for Uy, Initial residual = 3.77531e-06, Final residual = 3.77531e-06, No Iterations 0
DILUPBiCG:  Solving for Uz, Initial residual = 7.47966e-06, Final residual = 7.47966e-06, No Iterations 0
DICPCG:  Solving for p, Initial residual = 0.0832235, Final residual = 0.00807617, No Iterations 287
DICPCG:  Solving for p, Initial residual = 0.00484835, Final residual = 0.000467401, No Iterations 5
DICPCG:  Solving for p, Initial residual = 0.00069793, Final residual = 6.83761e-05, No Iterations 47
time step continuity errors : sum local = 0.0295343, global = -6.59233e-05, cumulative = -0.000472804
DILUPBiCG:  Solving for epsilon, Initial residual = 0.012485, Final residual = 7.46037e-07, No Iterations 4
DILUPBiCG:  Solving for k, Initial residual = 0.0771594, Final residual = 4.24804e-08, No Iterations 6
ExecutionTime = 26.59 s  ClockTime = 27 s

Time = 8

DILUPBiCG:  Solving for Ux, Initial residual = 1.674e-05, Final residual = 3.29454e-06, No Iterations 1
DILUPBiCG:  Solving for Uy, Initial residual = 9.78277e-06, Final residual = 9.78277e-06, No Iterations 0
DILUPBiCG:  Solving for Uz, Initial residual = 1.50885e-05, Final residual = 3.59334e-06, No Iterations 1
DICPCG:  Solving for p, Initial residual = 0.0236008, Final residual = 0.00231324, No Iterations 285
DICPCG:  Solving for p, Initial residual = 0.00372428, Final residual = 0.000366533, No Iterations 13
DICPCG:  Solving for p, Initial residual = 0.000635544, Final residual = 6.32852e-05, No Iterations 48
time step continuity errors : sum local = 0.0200356, global = -0.000143679, cumulative = -0.000616482
DILUPBiCG:  Solving for epsilon, Initial residual = 0.0121877, Final residual = 6.5769e-07, No Iterations 4
DILUPBiCG:  Solving for k, Initial residual = 0.0651012, Final residual = 3.51469e-08, No Iterations 6
ExecutionTime = 30.06 s  ClockTime = 30 s

Time = 9

DILUPBiCG:  Solving for Ux, Initial residual = 6.97168e-06, Final residual = 6.97168e-06, No Iterations 0
DILUPBiCG:  Solving for Uy, Initial residual = 1.20098e-05, Final residual = 2.46026e-06, No Iterations 1
DILUPBiCG:  Solving for Uz, Initial residual = 7.9023e-06, Final residual = 7.9023e-06, No Iterations 0
DICPCG:  Solving for p, Initial residual = 0.020229, Final residual = 0.00191308, No Iterations 272
DICPCG:  Solving for p, Initial residual = 0.0070819, Final residual = 0.000692638, No Iterations 18
DICPCG:  Solving for p, Initial residual = 0.00124116, Final residual = 0.000122618, No Iterations 38
time step continuity errors : sum local = 0.029012, global = 0.000179319, cumulative = -0.000437164
DILUPBiCG:  Solving for epsilon, Initial residual = 0.0130794, Final residual = 8.43968e-07, No Iterations 4
DILUPBiCG:  Solving for k, Initial residual = 0.057959, Final residual = 6.30886e-07, No Iterations 5
ExecutionTime = 33.37 s  ClockTime = 33 s

Time = 10

DILUPBiCG:  Solving for Ux, Initial residual = 3.6717e-06, Final residual = 3.6717e-06, No Iterations 0
DILUPBiCG:  Solving for Uy, Initial residual = 2.24916e-06, Final residual = 2.24916e-06, No Iterations 0
DILUPBiCG:  Solving for Uz, Initial residual = 4.5162e-06, Final residual = 4.5162e-06, No Iterations 0
DICPCG:  Solving for p, Initial residual = 0.0418017, Final residual = 0.00408346, No Iterations 285
DICPCG:  Solving for p, Initial residual = 0.00483156, Final residual = 0.000478433, No Iterations 6
DICPCG:  Solving for p, Initial residual = 0.000704913, Final residual = 6.85477e-05, No Iterations 51
time step continuity errors : sum local = 0.0190999, global = 1.80017e-05, cumulative = -0.000419162
DILUPBiCG:  Solving for epsilon, Initial residual = 0.0113659, Final residual = 6.48878e-06, No Iterations 3
DILUPBiCG:  Solving for k, Initial residual = 0.0519956, Final residual = 4.37958e-07, No Iterations 5
ExecutionTime = 36.74 s  ClockTime = 37 s

Time = 11

DILUPBiCG:  Solving for Ux, Initial residual = 5.00324e-06, Final residual = 5.00324e-06, No Iterations 0
DILUPBiCG:  Solving for Uy, Initial residual = 2.44177e-06, Final residual = 2.44177e-06, No Iterations 0
DILUPBiCG:  Solving for Uz, Initial residual = 4.47279e-06, Final residual = 4.47279e-06, No Iterations 0
DICPCG:  Solving for p, Initial residual = 0.0246636, Final residual = 0.0023684, No Iterations 288
DICPCG:  Solving for p, Initial residual = 0.00337514, Final residual = 0.000321595, No Iterations 5
DICPCG:  Solving for p, Initial residual = 0.000481151, Final residual = 4.74629e-05, No Iterations 52
time step continuity errors : sum local = 0.0107451, global = 6.35337e-05, cumulative = -0.000355628
DILUPBiCG:  Solving for epsilon, Initial residual = 0.0101984, Final residual = 4.61666e-06, No Iterations 3
DILUPBiCG:  Solving for k, Initial residual = 0.0480309, Final residual = 4.46208e-07, No Iterations 5
ExecutionTime = 40.1 s  ClockTime = 40 s

Time = 12

DILUPBiCG:  Solving for Ux, Initial residual = 6.58075e-06, Final residual = 6.58075e-06, No Iterations 0
DILUPBiCG:  Solving for Uy, Initial residual = 5.28369e-06, Final residual = 5.28369e-06, No Iterations 0
DILUPBiCG:  Solving for Uz, Initial residual = 5.37948e-06, Final residual = 5.37948e-06, No Iterations 0
DICPCG:  Solving for p, Initial residual = 0.00995031, Final residual = 0.000975962, No Iterations 45
DICPCG:  Solving for p, Initial residual = 0.00228177, Final residual = 0.000215385, No Iterations 269
DICPCG:  Solving for p, Initial residual = 0.000899452, Final residual = 8.72999e-05, No Iterations 18
time step continuity errors : sum local = 0.0106737, global = -5.35407e-05, cumulative = -0.000409169
DILUPBiCG:  Solving for epsilon, Initial residual = 0.00966529, Final residual = 4.09673e-06, No Iterations 3
DILUPBiCG:  Solving for k, Initial residual = 0.0455034, Final residual = 5.24955e-07, No Iterations 5
ExecutionTime = 43.38 s  ClockTime = 43 s

Time = 13

DILUPBiCG:  Solving for Ux, Initial residual = 6.43219e-06, Final residual = 6.43219e-06, No Iterations 0
DILUPBiCG:  Solving for Uy, Initial residual = 6.24879e-06, Final residual = 6.24879e-06, No Iterations 0
DILUPBiCG:  Solving for Uz, Initial residual = 5.50888e-06, Final residual = 5.50888e-06, No Iterations 0
DICPCG:  Solving for p, Initial residual = 0.0110798, Final residual = 0.00108901, No Iterations 281
DICPCG:  Solving for p, Initial residual = 0.0364583, Final residual = 0.00348437, No Iterations 20
DICPCG:  Solving for p, Initial residual = 0.00680594, Final residual = 0.00067944, No Iterations 40
time step continuity errors : sum local = 0.00862864, global = -9.31837e-06, cumulative = -0.000418487
DILUPBiCG:  Solving for epsilon, Initial residual = 0.00954474, Final residual = 8.98165e-07, No Iterations 4
DILUPBiCG:  Solving for k, Initial residual = 0.0432233, Final residual = 2.42962e-08, No Iterations 6
ExecutionTime = 46.74 s  ClockTime = 47 s

Time = 14

DILUPBiCG:  Solving for Ux, Initial residual = 4.83949e-06, Final residual = 4.83949e-06, No Iterations 0
DILUPBiCG:  Solving for Uy, Initial residual = 5.08229e-06, Final residual = 5.08229e-06, No Iterations 0
DILUPBiCG:  Solving for Uz, Initial residual = 4.39708e-06, Final residual = 4.39708e-06, No Iterations 0
DICPCG:  Solving for p, Initial residual = 0.0146822, Final residual = 0.00140494, No Iterations 278
DICPCG:  Solving for p, Initial residual = 0.00860528, Final residual = 0.000847166, No Iterations 13
DICPCG:  Solving for p, Initial residual = 0.00137881, Final residual = 0.000137444, No Iterations 49
time step continuity errors : sum local = 0.0101084, global = -0.000172383, cumulative = -0.00059087
DILUPBiCG:  Solving for epsilon, Initial residual = 0.00955755, Final residual = 6.86931e-06, No Iterations 3
DILUPBiCG:  Solving for k, Initial residual = 0.0408578, Final residual = 2.57329e-08, No Iterations 6
ExecutionTime = 50.1 s  ClockTime = 50 s

Time = 15

DILUPBiCG:  Solving for Ux, Initial residual = 3.06822e-06, Final residual = 3.06822e-06, No Iterations 0
DILUPBiCG:  Solving for Uy, Initial residual = 2.46515e-06, Final residual = 2.46515e-06, No Iterations 0
DILUPBiCG:  Solving for Uz, Initial residual = 2.99504e-06, Final residual = 2.99504e-06, No Iterations 0
DICPCG:  Solving for p, Initial residual = 0.0258036, Final residual = 0.00245781, No Iterations 282
DICPCG:  Solving for p, Initial residual = 0.00520012, Final residual = 0.000510757, No Iterations 5
DICPCG:  Solving for p, Initial residual = 0.000742465, Final residual = 7.2431e-05, No Iterations 59
time step continuity errors : sum local = 0.00796991, global = -0.000107552, cumulative = -0.000698422
DILUPBiCG:  Solving for epsilon, Initial residual = 0.00950024, Final residual = 6.03399e-06, No Iterations 3
DILUPBiCG:  Solving for k, Initial residual = 0.0384444, Final residual = 5.03499e-07, No Iterations 5
ExecutionTime = 53.51 s  ClockTime = 54 s

Time = 16

DILUPBiCG:  Solving for Ux, Initial residual = 2.5579e-06, Final residual = 2.5579e-06, No Iterations 0
DILUPBiCG:  Solving for Uy, Initial residual = 7.30261e-07, Final residual = 7.30261e-07, No Iterations 0
DILUPBiCG:  Solving for Uz, Initial residual = 2.48472e-06, Final residual = 2.48472e-06, No Iterations 0
DICPCG:  Solving for p, Initial residual = 0.0626244, Final residual = 0.00619781, No Iterations 287
DICPCG:  Solving for p, Initial residual = 0.00376491, Final residual = 0.000363054, No Iterations 4
DICPCG:  Solving for p, Initial residual = 0.000529641, Final residual = 5.21779e-05, No Iterations 56
time step continuity errors : sum local = 0.00542687, global = -6.43771e-05, cumulative = -0.000762799
DILUPBiCG:  Solving for epsilon, Initial residual = 0.00933406, Final residual = 4.62245e-06, No Iterations 3
DILUPBiCG:  Solving for k, Initial residual = 0.0360641, Final residual = 3.56573e-07, No Iterations 5
ExecutionTime = 56.92 s  ClockTime = 57 s

Time = 17

DILUPBiCG:  Solving for Ux, Initial residual = 2.94959e-06, Final residual = 2.94959e-06, No Iterations 0
DILUPBiCG:  Solving for Uy, Initial residual = 2.17297e-06, Final residual = 2.17297e-06, No Iterations 0
DILUPBiCG:  Solving for Uz, Initial residual = 2.74308e-06, Final residual = 2.74308e-06, No Iterations 0
DICPCG:  Solving for p, Initial residual = 0.0118066, Final residual = 0.00115492, No Iterations 283
DICPCG:  Solving for p, Initial residual = 0.00248413, Final residual = 0.000241287, No Iterations 17
DICPCG:  Solving for p, Initial residual = 0.000465392, Final residual = 4.5986e-05, No Iterations 41
time step continuity errors : sum local = 0.00321703, global = -1.60825e-05, cumulative = -0.000778881
DILUPBiCG:  Solving for epsilon, Initial residual = 0.00910112, Final residual = 3.14633e-06, No Iterations 3
DILUPBiCG:  Solving for k, Initial residual = 0.0338343, Final residual = 3.29823e-07, No Iterations 5
ExecutionTime = 60.25 s  ClockTime = 60 s

Time = 18

DILUPBiCG:  Solving for Ux, Initial residual = 2.88559e-06, Final residual = 2.88559e-06, No Iterations 0
DILUPBiCG:  Solving for Uy, Initial residual = 2.58629e-06, Final residual = 2.58629e-06, No Iterations 0
DILUPBiCG:  Solving for Uz, Initial residual = 2.89244e-06, Final residual = 2.89244e-06, No Iterations 0
DICPCG:  Solving for p, Initial residual = 0.00963142, Final residual = 0.000939252, No Iterations 94
DICPCG:  Solving for p, Initial residual = 0.00259268, Final residual = 0.000256104, No Iterations 267
DICPCG:  Solving for p, Initial residual = 0.00271137, Final residual = 0.000260223, No Iterations 8
time step continuity errors : sum local = 0.00693298, global = 0.000130632, cumulative = -0.000648249
DILUPBiCG:  Solving for epsilon, Initial residual = 0.00886417, Final residual = 3.05726e-06, No Iterations 3
DILUPBiCG:  Solving for k, Initial residual = 0.0318811, Final residual = 9.36255e-07, No Iterations 4
ExecutionTime = 63.79 s  ClockTime = 64 s

Time = 19

DILUPBiCG:  Solving for Ux, Initial residual = 2.38999e-06, Final residual = 2.38999e-06, No Iterations 0
DILUPBiCG:  Solving for Uy, Initial residual = 2.1398e-06, Final residual = 2.1398e-06, No Iterations 0
DILUPBiCG:  Solving for Uz, Initial residual = 2.69748e-06, Final residual = 2.69748e-06, No Iterations 0
DICPCG:  Solving for p, Initial residual = 0.0114582, Final residual = 0.00113094, No Iterations 283
DICPCG:  Solving for p, Initial residual = 0.0154757, Final residual = 0.00151473, No Iterations 18
DICPCG:  Solving for p, Initial residual = 0.00269807, Final residual = 0.000260905, No Iterations 54
time step continuity errors : sum local = 0.0036783, global = 2.63679e-05, cumulative = -0.000621882
DILUPBiCG:  Solving for epsilon, Initial residual = 0.00864686, Final residual = 3.2703e-06, No Iterations 3
DILUPBiCG:  Solving for k, Initial residual = 0.0302529, Final residual = 1.67636e-07, No Iterations 5
ExecutionTime = 67.23 s  ClockTime = 67 s

Time = 20

DILUPBiCG:  Solving for Ux, Initial residual = 1.91131e-06, Final residual = 1.91131e-06, No Iterations 0
DILUPBiCG:  Solving for Uy, Initial residual = 1.29104e-06, Final residual = 1.29104e-06, No Iterations 0
DILUPBiCG:  Solving for Uz, Initial residual = 2.36829e-06, Final residual = 2.36829e-06, No Iterations 0
DICPCG:  Solving for p, Initial residual = 0.0158475, Final residual = 0.00156751, No Iterations 280
DICPCG:  Solving for p, Initial residual = 0.00660625, Final residual = 0.00065507, No Iterations 18
DICPCG:  Solving for p, Initial residual = 0.00113361, Final residual = 0.000109274, No Iterations 44
time step continuity errors : sum local = 0.00387772, global = 3.74519e-05, cumulative = -0.00058443
DILUPBiCG:  Solving for epsilon, Initial residual = 0.00845231, Final residual = 3.52551e-06, No Iterations 3
DILUPBiCG:  Solving for k, Initial residual = 0.0289278, Final residual = 1.61296e-07, No Iterations 5
ExecutionTime = 70.59 s  ClockTime = 71 s

forces porousforces write:
    sum of forces:
        pressure : (0 0 0)
        viscous  : (0 0 0)
        porous   : (84479.6 -7.16412e-13 72923.4)
    sum of moments:
        pressure : (0 0 0)
        viscous  : (0 0 0)
        porous   : (65399.4 6159.89 -74557.9)

volFieldValue volFieldValue_0 write:
    volIntegrate(cz_solid_0) of U = (1.70425e-09 -4.68375e-09 -4.07815e-09)

surfaceFieldValue massFlowAtFilter_0 write:
    sum(fz_solid_0) of phi = 6.81206e-05

volFieldValue volFieldValue_1 write:
    volIntegrate(cz_solid_1) of U = (3.65859e-10 -4.07574e-09 -3.7105e-09)

surfaceFieldValue massFlowAtFilter_1 write:
    sum(fz_solid_1) of phi = 3.92775e-05

volFieldValue volFieldValue_2 write:
    volIntegrate(cz_solid_2) of U = (-7.03596e-10 -4.03734e-09 -3.11939e-09)

surfaceFieldValue massFlowAtFilter_2 write:
    sum(fz_solid_2) of phi = -5.85332e-05

volFieldValue volFieldValue_3 write:
    volIntegrate(cz_solid_3) of U = (-1.53142e-09 -3.77998e-09 -2.43575e-09)

surfaceFieldValue massFlowAtFilter_3 write:
    sum(fz_solid_3) of phi = -7.23383e-07

volFieldValue volFieldValue_4 write:
    volIntegrate(cz_solid_4) of U = (-2.2965e-09 -3.43997e-09 -1.60741e-09)

surfaceFieldValue massFlowAtFilter_4 write:
    sum(fz_solid_4) of phi = 6.44536e-06

volFieldValue volFieldValue_5 write:
    volIntegrate(cz_solid_5) of U = (-2.92005e-09 -3.38375e-09 -7.98876e-10)

surfaceFieldValue massFlowAtFilter_5 write:
    sum(fz_solid_5) of phi = -9.26128e-05

volFieldValue volFieldValue_6 write:
    volIntegrate(cz_solid_6) of U = (-3.48762e-09 -3.60563e-09 2.22294e-10)

surfaceFieldValue massFlowAtFilter_6 write:
    sum(fz_solid_6) of phi = -5.91167e-05

volFieldValue volFieldValue_7 write:
    volIntegrate(cz_solid_7) of U = (-3.78284e-09 -3.77992e-09 1.52222e-09)

surfaceFieldValue massFlowAtFilter_7 write:
    sum(fz_solid_7) of phi = 2.77682e-05

volFieldValue volFieldValue_8 write:
    volIntegrate(cz_solid_8) of U = (-3.66547e-09 -4.10115e-09 2.94758e-09)

surfaceFieldValue massFlowAtFilter_8 write:
    sum(fz_solid_8) of phi = -1.56662e-05

volFieldValue volFieldValue_9 write:
    volIntegrate(cz_solid_9) of U = (-2.96818e-09 -4.53666e-09 4.50142e-09)

surfaceFieldValue massFlowAtFilter_9 write:
    sum(fz_solid_9) of phi = 5.73261e-06

volFieldValue volFieldValue_10 write:
    volIntegrate(cz_solid_10) of U = (-1.6269e-09 -4.79422e-09 5.83267e-09)

surfaceFieldValue massFlowAtFilter_10 write:
    sum(fz_solid_10) of phi = -6.23491e-05

volFieldValue volFieldValue_11 write:
    volIntegrate(cz_solid_11) of U = (1.16477e-10 -5.11368e-09 6.75292e-09)

surfaceFieldValue massFlowAtFilter_11 write:
    sum(fz_solid_11) of phi = 8.20864e-06

volFieldValue volFieldValue_12 write:
    volIntegrate(cz_solid_12) of U = (2.42351e-09 -5.49918e-09 7.03873e-09)

surfaceFieldValue massFlowAtFilter_12 write:
    sum(fz_solid_12) of phi = 2.0373e-05

volFieldValue volFieldValue_13 write:
    volIntegrate(cz_solid_13) of U = (4.83313e-09 -6.11849e-09 6.46279e-09)

surfaceFieldValue massFlowAtFilter_13 write:
    sum(fz_solid_13) of phi = 9.40798e-05

volFieldValue volFieldValue_14 write:
    volIntegrate(cz_solid_14) of U = (6.83747e-09 -6.61554e-09 4.98837e-09)

surfaceFieldValue massFlowAtFilter_14 write:
    sum(fz_solid_14) of phi = 0.000150291

volFieldValue volFieldValue_15 write:
    volIntegrate(cz_solid_15) of U = (7.99812e-09 -6.93695e-09 2.57514e-09)

surfaceFieldValue massFlowAtFilter_15 write:
    sum(fz_solid_15) of phi = 0.000134439

volFieldValue volFieldValue_16 write:
    volIntegrate(cz_solid_16) of U = (7.8748e-09 -6.64724e-09 3.16536e-11)

surfaceFieldValue massFlowAtFilter_16 write:
    sum(fz_solid_16) of phi = 6.02946e-05

volFieldValue volFieldValue_17 write:
    volIntegrate(cz_solid_17) of U = (6.73186e-09 -6.30885e-09 -2.07304e-09)

surfaceFieldValue massFlowAtFilter_17 write:
    sum(fz_solid_17) of phi = -2.19903e-05

volFieldValue volFieldValue_18 write:
    volIntegrate(cz_solid_18) of U = (5.11352e-09 -5.57725e-09 -3.42911e-09)

surfaceFieldValue massFlowAtFilter_18 write:
    sum(fz_solid_18) of phi = 9.5322e-05

volFieldValue volFieldValue_19 write:
    volIntegrate(cz_solid_19) of U = (3.32174e-09 -5.03679e-09 -3.99391e-09)

surfaceFieldValue massFlowAtFilter_19 write:
    sum(fz_solid_19) of phi = 1.18102e-05

volFieldValue volFieldValue_20 write:
    volIntegrate(cz_solid_20) of U = (1.39832e-09 -7.95854e-09 -2.98457e-09)

surfaceFieldValue massFlowAtFilter_20 write:
    sum(fz_solid_20) of phi = 2.40473e-05

volFieldValue volFieldValue_21 write:
    volIntegrate(cz_solid_21) of U = (3.36665e-10 -7.23588e-09 -2.7344e-09)

surfaceFieldValue massFlowAtFilter_21 write:
    sum(fz_solid_21) of phi = 2.62304e-05

volFieldValue volFieldValue_22 write:
    volIntegrate(cz_solid_22) of U = (-5.02282e-10 -7.01342e-09 -2.30721e-09)

surfaceFieldValue massFlowAtFilter_22 write:
    sum(fz_solid_22) of phi = -4.64373e-05

volFieldValue volFieldValue_23 write:
    volIntegrate(cz_solid_23) of U = (-1.14129e-09 -6.82004e-09 -1.7823e-09)

surfaceFieldValue massFlowAtFilter_23 write:
    sum(fz_solid_23) of phi = 2.15449e-05

volFieldValue volFieldValue_24 write:
    volIntegrate(cz_solid_24) of U = (-1.72993e-09 -6.36669e-09 -1.13671e-09)

surfaceFieldValue massFlowAtFilter_24 write:
    sum(fz_solid_24) of phi = 8.98285e-06

volFieldValue volFieldValue_25 write:
    volIntegrate(cz_solid_25) of U = (-2.20595e-09 -6.14875e-09 -4.99628e-10)

surfaceFieldValue massFlowAtFilter_25 write:
    sum(fz_solid_25) of phi = 1.84213e-06

volFieldValue volFieldValue_26 write:
    volIntegrate(cz_solid_26) of U = (-2.64357e-09 -6.58359e-09 2.77189e-10)

surfaceFieldValue massFlowAtFilter_26 write:
    sum(fz_solid_26) of phi = -3.04069e-07

volFieldValue volFieldValue_27 write:
    volIntegrate(cz_solid_27) of U = (-2.83713e-09 -6.62202e-09 1.28928e-09)

surfaceFieldValue massFlowAtFilter_27 write:
    sum(fz_solid_27) of phi = 3.0597e-05

volFieldValue volFieldValue_28 write:
    volIntegrate(cz_solid_28) of U = (-2.7097e-09 -7.10019e-09 2.38953e-09)

surfaceFieldValue massFlowAtFilter_28 write:
    sum(fz_solid_28) of phi = 4.47144e-05

volFieldValue volFieldValue_29 write:
    volIntegrate(cz_solid_29) of U = (-2.09033e-09 -7.72323e-09 3.5747e-09)

surfaceFieldValue massFlowAtFilter_29 write:
    sum(fz_solid_29) of phi = 1.15072e-05

volFieldValue volFieldValue_30 write:
    volIntegrate(cz_solid_30) of U = (-1.03241e-09 -8.63355e-09 4.53711e-09)

surfaceFieldValue massFlowAtFilter_30 write:
    sum(fz_solid_30) of phi = -1.44701e-05

volFieldValue volFieldValue_31 write:
    volIntegrate(cz_solid_31) of U = (3.58831e-10 -1.01042e-08 5.1657e-09)

surfaceFieldValue massFlowAtFilter_31 write:
    sum(fz_solid_31) of phi = -3.18456e-05

volFieldValue volFieldValue_32 write:
    volIntegrate(cz_solid_32) of U = (2.10498e-09 -1.12133e-08 5.31535e-09)

surfaceFieldValue massFlowAtFilter_32 write:
    sum(fz_solid_32) of phi = -1.13942e-05

volFieldValue volFieldValue_33 write:
    volIntegrate(cz_solid_33) of U = (3.91469e-09 -1.26051e-08 4.90813e-09)

surfaceFieldValue massFlowAtFilter_33 write:
    sum(fz_solid_33) of phi = 6.9207e-05

volFieldValue volFieldValue_34 write:
    volIntegrate(cz_solid_34) of U = (5.41916e-09 -1.38987e-08 3.95375e-09)

surfaceFieldValue massFlowAtFilter_34 write:
    sum(fz_solid_34) of phi = 4.72313e-05

volFieldValue volFieldValue_35 write:
    volIntegrate(cz_solid_35) of U = (6.3475e-09 -1.40406e-08 2.26312e-09)

surfaceFieldValue massFlowAtFilter_35 write:
    sum(fz_solid_35) of phi = 5.60727e-05

volFieldValue volFieldValue_36 write:
    volIntegrate(cz_solid_36) of U = (6.30241e-09 -1.30059e-08 4.18941e-10)

surfaceFieldValue massFlowAtFilter_36 write:
    sum(fz_solid_36) of phi = 3.81415e-05

volFieldValue volFieldValue_37 write:
    volIntegrate(cz_solid_37) of U = (5.44064e-09 -1.13311e-08 -1.22263e-09)

surfaceFieldValue massFlowAtFilter_37 write:
    sum(fz_solid_37) of phi = 8.36041e-06

volFieldValue volFieldValue_38 write:
    volIntegrate(cz_solid_38) of U = (4.17796e-09 -1.01675e-08 -2.36537e-09)

surfaceFieldValue massFlowAtFilter_38 write:
    sum(fz_solid_38) of phi = -2.12312e-05

volFieldValue volFieldValue_39 write:
    volIntegrate(cz_solid_39) of U = (2.70187e-09 -8.6083e-09 -2.8727e-09)

surfaceFieldValue massFlowAtFilter_39 write:
    sum(fz_solid_39) of phi = 2.9102e-05

volFieldValue volFieldValue_40 write:
    volIntegrate(cz_solid_40) of U = (7.94928e-10 -7.10898e-09 -1.18585e-09)

surfaceFieldValue massFlowAtFilter_40 write:
    sum(fz_solid_40) of phi = 3.0136e-05

volFieldValue volFieldValue_41 write:
    volIntegrate(cz_solid_41) of U = (2.55145e-10 -6.41218e-09 -1.15015e-09)

surfaceFieldValue massFlowAtFilter_41 write:
    sum(fz_solid_41) of phi = 1.22086e-05

volFieldValue volFieldValue_42 write:
    volIntegrate(cz_solid_42) of U = (-1.77709e-10 -6.3046e-09 -9.7818e-10)

surfaceFieldValue massFlowAtFilter_42 write:
    sum(fz_solid_42) of phi = -2.53847e-07

volFieldValue volFieldValue_43 write:
    volIntegrate(cz_solid_43) of U = (-5.29891e-10 -6.03528e-09 -7.14972e-10)

surfaceFieldValue massFlowAtFilter_43 write:
    sum(fz_solid_43) of phi = 1.6614e-05

volFieldValue volFieldValue_44 write:
    volIntegrate(cz_solid_44) of U = (-8.51463e-10 -5.57216e-09 -3.95323e-10)

surfaceFieldValue massFlowAtFilter_44 write:
    sum(fz_solid_44) of phi = 2.41408e-06

volFieldValue volFieldValue_45 write:
    volIntegrate(cz_solid_45) of U = (-1.15973e-09 -5.4689e-09 -5.13888e-11)

surfaceFieldValue massFlowAtFilter_45 write:
    sum(fz_solid_45) of phi = 2.55339e-06

volFieldValue volFieldValue_46 write:
    volIntegrate(cz_solid_46) of U = (-1.45835e-09 -5.67074e-09 3.69509e-10)

surfaceFieldValue massFlowAtFilter_46 write:
    sum(fz_solid_46) of phi = -1.42654e-05

volFieldValue volFieldValue_47 write:
    volIntegrate(cz_solid_47) of U = (-1.58993e-09 -5.71431e-09 1.00791e-09)

surfaceFieldValue massFlowAtFilter_47 write:
    sum(fz_solid_47) of phi = 3.42767e-05

volFieldValue volFieldValue_48 write:
    volIntegrate(cz_solid_48) of U = (-1.48208e-09 -5.92928e-09 1.7087e-09)

surfaceFieldValue massFlowAtFilter_48 write:
    sum(fz_solid_48) of phi = -4.51207e-06

volFieldValue volFieldValue_49 write:
    volIntegrate(cz_solid_49) of U = (-1.02678e-09 -6.35743e-09 2.46704e-09)

surfaceFieldValue massFlowAtFilter_49 write:
    sum(fz_solid_49) of phi = -1.37639e-05

volFieldValue volFieldValue_50 write:
    volIntegrate(cz_solid_50) of U = (-2.52109e-10 -7.02979e-09 3.08941e-09)

surfaceFieldValue massFlowAtFilter_50 write:
    sum(fz_solid_50) of phi = 7.8116e-06

volFieldValue volFieldValue_51 write:
    volIntegrate(cz_solid_51) of U = (7.33006e-10 -8.14713e-09 3.45043e-09)

surfaceFieldValue massFlowAtFilter_51 write:
    sum(fz_solid_51) of phi = -9.41499e-06

volFieldValue volFieldValue_52 write:
    volIntegrate(cz_solid_52) of U = (1.9744e-09 -9.23098e-09 3.53226e-09)

surfaceFieldValue massFlowAtFilter_52 write:
    sum(fz_solid_52) of phi = -2.42924e-06

volFieldValue volFieldValue_53 write:
    volIntegrate(cz_solid_53) of U = (3.30897e-09 -1.09939e-08 3.37444e-09)

surfaceFieldValue massFlowAtFilter_53 write:
    sum(fz_solid_53) of phi = 1.65223e-05

volFieldValue volFieldValue_54 write:
    volIntegrate(cz_solid_54) of U = (4.52076e-09 -1.36601e-08 3.01939e-09)

surfaceFieldValue massFlowAtFilter_54 write:
    sum(fz_solid_54) of phi = 4.16898e-05

volFieldValue volFieldValue_55 write:
    volIntegrate(cz_solid_55) of U = (5.29456e-09 -1.52279e-08 2.19074e-09)

surfaceFieldValue massFlowAtFilter_55 write:
    sum(fz_solid_55) of phi = 2.52016e-05

volFieldValue volFieldValue_56 write:
    volIntegrate(cz_solid_56) of U = (4.87023e-09 -1.48919e-08 1.42146e-09)

surfaceFieldValue massFlowAtFilter_56 write:
    sum(fz_solid_56) of phi = -2.11453e-05

volFieldValue volFieldValue_57 write:
    volIntegrate(cz_solid_57) of U = (3.54774e-09 -1.19404e-08 4.86079e-10)

surfaceFieldValue massFlowAtFilter_57 write:
    sum(fz_solid_57) of phi = 1.86494e-06

volFieldValue volFieldValue_58 write:
    volIntegrate(cz_solid_58) of U = (2.34468e-09 -9.28784e-09 -5.71284e-10)

surfaceFieldValue massFlowAtFilter_58 write:
    sum(fz_solid_58) of phi = 1.8486e-07

volFieldValue volFieldValue_59 write:
    volIntegrate(cz_solid_59) of U = (1.47403e-09 -7.55089e-09 -9.95906e-10)

surfaceFieldValue massFlowAtFilter_59 write:
    sum(fz_solid_59) of phi = 6.88523e-06

volFieldValue volFieldValue_60 write:
    volIntegrate(cz_solid_60) of U = (-9.88724e-11 -5.12385e-09 4.84741e-10)

surfaceFieldValue massFlowAtFilter_60 write:
    sum(fz_solid_60) of phi = -2.70359e-06

volFieldValue volFieldValue_61 write:
    volIntegrate(cz_solid_61) of U = (1.15307e-11 -4.5657e-09 2.35095e-10)

surfaceFieldValue massFlowAtFilter_61 write:
    sum(fz_solid_61) of phi = -9.65935e-06

volFieldValue volFieldValue_62 write:
    volIntegrate(cz_solid_62) of U = (-2.12376e-11 -4.36515e-09 1.02641e-10)

surfaceFieldValue massFlowAtFilter_62 write:
    sum(fz_solid_62) of phi = -8.01432e-06

volFieldValue volFieldValue_63 write:
    volIntegrate(cz_solid_63) of U = (-1.59891e-10 -4.09673e-09 9.84499e-11)

surfaceFieldValue massFlowAtFilter_63 write:
    sum(fz_solid_63) of phi = -1.23847e-05

volFieldValue volFieldValue_64 write:
    volIntegrate(cz_solid_64) of U = (-3.32394e-10 -3.68619e-09 1.29538e-10)

surfaceFieldValue massFlowAtFilter_64 write:
    sum(fz_solid_64) of phi = -1.81547e-05

volFieldValue volFieldValue_65 write:
    volIntegrate(cz_solid_65) of U = (-5.62642e-10 -3.53577e-09 2.41681e-10)

surfaceFieldValue massFlowAtFilter_65 write:
    sum(fz_solid_65) of phi = -2.32154e-05

volFieldValue volFieldValue_66 write:
    volIntegrate(cz_solid_66) of U = (-8.03675e-10 -3.70288e-09 4.46026e-10)

surfaceFieldValue massFlowAtFilter_66 write:
    sum(fz_solid_66) of phi = -2.07717e-05

volFieldValue volFieldValue_67 write:
    volIntegrate(cz_solid_67) of U = (-9.15737e-10 -3.68729e-09 8.89878e-10)

surfaceFieldValue massFlowAtFilter_67 write:
    sum(fz_solid_67) of phi = -1.09526e-05

volFieldValue volFieldValue_68 write:
    volIntegrate(cz_solid_68) of U = (-8.38397e-10 -3.8511e-09 1.40763e-09)

surfaceFieldValue massFlowAtFilter_68 write:
    sum(fz_solid_68) of phi = -1.97845e-05

volFieldValue volFieldValue_69 write:
    volIntegrate(cz_solid_69) of U = (-4.5485e-10 -4.22351e-09 2.02189e-09)

surfaceFieldValue massFlowAtFilter_69 write:
    sum(fz_solid_69) of phi = -1.92467e-05

volFieldValue volFieldValue_70 write:
    volIntegrate(cz_solid_70) of U = (2.28347e-10 -4.75735e-09 2.55523e-09)

surfaceFieldValue massFlowAtFilter_70 write:
    sum(fz_solid_70) of phi = -2.8703e-05

volFieldValue volFieldValue_71 write:
    volIntegrate(cz_solid_71) of U = (1.13737e-09 -5.74145e-09 2.89454e-09)

surfaceFieldValue massFlowAtFilter_71 write:
    sum(fz_solid_71) of phi = -1.97705e-05

volFieldValue volFieldValue_72 write:
    volIntegrate(cz_solid_72) of U = (2.44238e-09 -7.0452e-09 3.05169e-09)

surfaceFieldValue massFlowAtFilter_72 write:
    sum(fz_solid_72) of phi = -3.99073e-05

volFieldValue volFieldValue_73 write:
    volIntegrate(cz_solid_73) of U = (4.17264e-09 -9.61682e-09 3.04115e-09)

surfaceFieldValue massFlowAtFilter_73 write:
    sum(fz_solid_73) of phi = -6.44627e-06

volFieldValue volFieldValue_74 write:
    volIntegrate(cz_solid_74) of U = (6.30792e-09 -1.41429e-08 2.91079e-09)

surfaceFieldValue massFlowAtFilter_74 write:
    sum(fz_solid_74) of phi = 5.14699e-05

volFieldValue volFieldValue_75 write:
    volIntegrate(cz_solid_75) of U = (8.88294e-09 -2.08602e-08 1.89314e-09)

surfaceFieldValue massFlowAtFilter_75 write:
    sum(fz_solid_75) of phi = 6.92225e-05

volFieldValue volFieldValue_76 write:
    volIntegrate(cz_solid_76) of U = (9.53962e-09 -3.20799e-08 1.44919e-09)

surfaceFieldValue massFlowAtFilter_76 write:
    sum(fz_solid_76) of phi = -5.80109e-06

volFieldValue volFieldValue_77 write:
    volIntegrate(cz_solid_77) of U = (3.04532e-09 -2.78525e-08 7.70935e-09)

surfaceFieldValue massFlowAtFilter_77 write:
    sum(fz_solid_77) of phi = 5.90683e-05

volFieldValue volFieldValue_78 write:
    volIntegrate(cz_solid_78) of U = (-2.48134e-09 -8.64835e-09 1.4945e-09)

surfaceFieldValue massFlowAtFilter_78 write:
    sum(fz_solid_78) of phi = -3.86561e-05

volFieldValue volFieldValue_79 write:
    volIntegrate(cz_solid_79) of U = (-5.6658e-10 -5.373e-09 8.33183e-10)

surfaceFieldValue massFlowAtFilter_79 write:
    sum(fz_solid_79) of phi = -2.26729e-05

volFieldValue volFieldValue_80 write:
    volIntegrate(cz_solid_80) of U = (-7.67364e-10 -2.6311e-09 1.52041e-09)

surfaceFieldValue massFlowAtFilter_80 write:
    sum(fz_solid_80) of phi = -3.46804e-05

volFieldValue volFieldValue_81 write:
    volIntegrate(cz_solid_81) of U = (-2.30533e-10 -2.22459e-09 1.05696e-09)

surfaceFieldValue massFlowAtFilter_81 write:
    sum(fz_solid_81) of phi = -2.22724e-05

volFieldValue volFieldValue_82 write:
    volIntegrate(cz_solid_82) of U = (-1.54995e-11 -1.98168e-09 6.79599e-10)

surfaceFieldValue massFlowAtFilter_82 write:
    sum(fz_solid_82) of phi = -5.92372e-06

volFieldValue volFieldValue_83 write:
    volIntegrate(cz_solid_83) of U = (-5.77033e-11 -1.66383e-09 5.04878e-10)

surfaceFieldValue massFlowAtFilter_83 write:
    sum(fz_solid_83) of phi = -1.20046e-05

volFieldValue volFieldValue_84 write:
    volIntegrate(cz_solid_84) of U = (-1.53864e-10 -1.38105e-09 3.75614e-10)

surfaceFieldValue massFlowAtFilter_84 write:
    sum(fz_solid_84) of phi = -1.59603e-05

volFieldValue volFieldValue_85 write:
    volIntegrate(cz_solid_85) of U = (-3.45984e-10 -1.25687e-09 3.97388e-10)

surfaceFieldValue massFlowAtFilter_85 write:
    sum(fz_solid_85) of phi = -3.09579e-05

volFieldValue volFieldValue_86 write:
    volIntegrate(cz_solid_86) of U = (-5.38077e-10 -1.30932e-09 5.26949e-10)

surfaceFieldValue massFlowAtFilter_86 write:
    sum(fz_solid_86) of phi = -1.76547e-05

volFieldValue volFieldValue_87 write:
    volIntegrate(cz_solid_87) of U = (-6.09073e-10 -1.30349e-09 8.86977e-10)

surfaceFieldValue massFlowAtFilter_87 write:
    sum(fz_solid_87) of phi = 1.66778e-05

volFieldValue volFieldValue_88 write:
    volIntegrate(cz_solid_88) of U = (-5.12609e-10 -1.42692e-09 1.3375e-09)

surfaceFieldValue massFlowAtFilter_88 write:
    sum(fz_solid_88) of phi = -2.13387e-05

volFieldValue volFieldValue_89 write:
    volIntegrate(cz_solid_89) of U = (-1.51275e-10 -1.65587e-09 1.87896e-09)

surfaceFieldValue massFlowAtFilter_89 write:
    sum(fz_solid_89) of phi = 1.56442e-06

volFieldValue volFieldValue_90 write:
    volIntegrate(cz_solid_90) of U = (5.3178e-10 -1.8597e-09 2.37944e-09)

surfaceFieldValue massFlowAtFilter_90 write:
    sum(fz_solid_90) of phi = -1.62345e-05

volFieldValue volFieldValue_91 write:
    volIntegrate(cz_solid_91) of U = (1.49263e-09 -2.24137e-09 2.71637e-09)

surfaceFieldValue massFlowAtFilter_91 write:
    sum(fz_solid_91) of phi = 5.09432e-06

volFieldValue volFieldValue_92 write:
    volIntegrate(cz_solid_92) of U = (3.02711e-09 -2.90219e-09 2.80849e-09)

surfaceFieldValue massFlowAtFilter_92 write:
    sum(fz_solid_92) of phi = -1.10062e-05

volFieldValue volFieldValue_93 write:
    volIntegrate(cz_solid_93) of U = (5.21611e-09 -4.29907e-09 2.59638e-09)

surfaceFieldValue massFlowAtFilter_93 write:
    sum(fz_solid_93) of phi = 2.88965e-05

volFieldValue volFieldValue_94 write:
    volIntegrate(cz_solid_94) of U = (8.28479e-09 -6.40478e-09 2.22839e-09)

surfaceFieldValue massFlowAtFilter_94 write:
    sum(fz_solid_94) of phi = 0.000153124

[...]

surfaceFieldValue massFlowAtFilter_51 write:
    sum(fz_solid_51) of phi = -1.94958e-05

volFieldValue volFieldValue_52 write:
    volIntegrate(cz_solid_52) of U = (3.04624e-10 -5.58796e-08 1.71213e-10)

surfaceFieldValue massFlowAtFilter_52 write:
    sum(fz_solid_52) of phi = 2.30312e-05

volFieldValue volFieldValue_53 write:
    volIntegrate(cz_solid_53) of U = (2.63998e-10 -9.16675e-09 2.24009e-10)

surfaceFieldValue massFlowAtFilter_53 write:
    sum(fz_solid_53) of phi = 3.39599e-05

volFieldValue volFieldValue_54 write:
    volIntegrate(cz_solid_54) of U = (1.42749e-10 3.77363e-08 9.46002e-11)

surfaceFieldValue massFlowAtFilter_54 write:
    sum(fz_solid_54) of phi = 2.47015e-05

volFieldValue volFieldValue_55 write:
    volIntegrate(cz_solid_55) of U = (-6.18789e-11 7.91963e-08 -9.33368e-11)

surfaceFieldValue massFlowAtFilter_55 write:
    sum(fz_solid_55) of phi = 1.616e-05

volFieldValue volFieldValue_56 write:
    volIntegrate(cz_solid_56) of U = (-2.78678e-10 8.73269e-08 -1.85302e-10)

surfaceFieldValue massFlowAtFilter_56 write:
    sum(fz_solid_56) of phi = 2.11207e-05

volFieldValue volFieldValue_57 write:
    volIntegrate(cz_solid_57) of U = (-4.50756e-10 6.42775e-08 -4.05721e-11)

surfaceFieldValue massFlowAtFilter_57 write:
    sum(fz_solid_57) of phi = 4.82983e-05

volFieldValue volFieldValue_58 write:
    volIntegrate(cz_solid_58) of U = (-4.12933e-10 2.87255e-08 2.75824e-10)

surfaceFieldValue massFlowAtFilter_58 write:
    sum(fz_solid_58) of phi = -5.9552e-05

volFieldValue volFieldValue_59 write:
    volIntegrate(cz_solid_59) of U = (-3.10653e-10 3.08078e-09 4.90063e-10)

surfaceFieldValue massFlowAtFilter_59 write:
    sum(fz_solid_59) of phi = -9.56508e-05

volFieldValue volFieldValue_60 write:
    volIntegrate(cz_solid_60) of U = (-5.41909e-10 2.61499e-08 8.02519e-10)

surfaceFieldValue massFlowAtFilter_60 write:
    sum(fz_solid_60) of phi = -9.95538e-05

volFieldValue volFieldValue_61 write:
    volIntegrate(cz_solid_61) of U = (-5.18624e-10 -2.8528e-09 7.75762e-10)

surfaceFieldValue massFlowAtFilter_61 write:
    sum(fz_solid_61) of phi = 3.58313e-05

volFieldValue volFieldValue_62 write:
    volIntegrate(cz_solid_62) of U = (-1.08101e-09 -3.44657e-08 1.27396e-09)

surfaceFieldValue massFlowAtFilter_62 write:
    sum(fz_solid_62) of phi = -2.56924e-05

volFieldValue volFieldValue_63 write:
    volIntegrate(cz_solid_63) of U = (-2.0082e-09 -7.76443e-08 3.06117e-09)

surfaceFieldValue massFlowAtFilter_63 write:
    sum(fz_solid_63) of phi = 0.000728236

volFieldValue volFieldValue_64 write:
    volIntegrate(cz_solid_64) of U = (-9.51891e-10 -1.21491e-07 6.59014e-09)

surfaceFieldValue massFlowAtFilter_64 write:
    sum(fz_solid_64) of phi = 0.000328325

volFieldValue volFieldValue_65 write:
    volIntegrate(cz_solid_65) of U = (2.88564e-09 -1.60232e-07 7.99972e-09)

surfaceFieldValue massFlowAtFilter_65 write:
    sum(fz_solid_65) of phi = 0.000191548

volFieldValue volFieldValue_66 write:
    volIntegrate(cz_solid_66) of U = (3.50897e-09 -1.96339e-07 5.3107e-09)

surfaceFieldValue massFlowAtFilter_66 write:
    sum(fz_solid_66) of phi = -0.000807429

volFieldValue volFieldValue_67 write:
    volIntegrate(cz_solid_67) of U = (2.98039e-09 -2.16403e-07 4.99921e-09)

surfaceFieldValue massFlowAtFilter_67 write:
    sum(fz_solid_67) of phi = 0.000751597

volFieldValue volFieldValue_68 write:
    volIntegrate(cz_solid_68) of U = (5.37289e-09 -2.26249e-07 3.54581e-09)

surfaceFieldValue massFlowAtFilter_68 write:
    sum(fz_solid_68) of phi = 3.03891e-05

volFieldValue volFieldValue_69 write:
    volIntegrate(cz_solid_69) of U = (3.76341e-09 -2.06976e-07 3.4612e-11)

surfaceFieldValue massFlowAtFilter_69 write:
    sum(fz_solid_69) of phi = -3.58072e-05

volFieldValue volFieldValue_70 write:
    volIntegrate(cz_solid_70) of U = (1.45806e-09 -1.43203e-07 -1.3087e-09)

surfaceFieldValue massFlowAtFilter_70 write:
    sum(fz_solid_70) of phi = -0.000374713

volFieldValue volFieldValue_71 write:
    volIntegrate(cz_solid_71) of U = (7.73803e-10 -1.15868e-07 -9.99835e-10)

surfaceFieldValue massFlowAtFilter_71 write:
    sum(fz_solid_71) of phi = -3.34844e-05

volFieldValue volFieldValue_72 write:
    volIntegrate(cz_solid_72) of U = (-1.01995e-10 -6.68271e-08 -7.41878e-10)

surfaceFieldValue massFlowAtFilter_72 write:
    sum(fz_solid_72) of phi = 5.96068e-05

volFieldValue volFieldValue_73 write:
    volIntegrate(cz_solid_73) of U = (-7.33628e-10 3.96296e-08 -6.87841e-10)

surfaceFieldValue massFlowAtFilter_73 write:
    sum(fz_solid_73) of phi = -5.17182e-05

volFieldValue volFieldValue_74 write:
    volIntegrate(cz_solid_74) of U = (-1.03575e-09 1.27567e-07 -6.75021e-10)

surfaceFieldValue massFlowAtFilter_74 write:
    sum(fz_solid_74) of phi = -1.91333e-05

volFieldValue volFieldValue_75 write:
    volIntegrate(cz_solid_75) of U = (-1.02247e-09 1.56013e-07 -7.0299e-10)

surfaceFieldValue massFlowAtFilter_75 write:
    sum(fz_solid_75) of phi = -0.000120754

volFieldValue volFieldValue_76 write:
    volIntegrate(cz_solid_76) of U = (-8.72447e-10 9.47528e-08 -5.56291e-10)

surfaceFieldValue massFlowAtFilter_76 write:
    sum(fz_solid_76) of phi = 3.26817e-05

volFieldValue volFieldValue_77 write:
    volIntegrate(cz_solid_77) of U = (-6.76634e-10 7.01898e-08 -1.29357e-10)

surfaceFieldValue massFlowAtFilter_77 write:
    sum(fz_solid_77) of phi = -5.04678e-07

volFieldValue volFieldValue_78 write:
    volIntegrate(cz_solid_78) of U = (-6.05937e-10 8.05192e-08 1.64435e-10)

surfaceFieldValue massFlowAtFilter_78 write:
    sum(fz_solid_78) of phi = -0.000308334

volFieldValue volFieldValue_79 write:
    volIntegrate(cz_solid_79) of U = (-5.93452e-10 4.82678e-08 5.50837e-10)

surfaceFieldValue massFlowAtFilter_79 write:
    sum(fz_solid_79) of phi = -5.57591e-05

volFieldValue volFieldValue_80 write:
    volIntegrate(cz_solid_80) of U = (-6.88704e-10 -4.88415e-09 5.7077e-10)

surfaceFieldValue massFlowAtFilter_80 write:
    sum(fz_solid_80) of phi = -5.92094e-06

volFieldValue volFieldValue_81 write:
    volIntegrate(cz_solid_81) of U = (-7.30447e-10 -2.55277e-08 7.69052e-10)

surfaceFieldValue massFlowAtFilter_81 write:
    sum(fz_solid_81) of phi = -5.0795e-06

volFieldValue volFieldValue_82 write:
    volIntegrate(cz_solid_82) of U = (-1.47303e-09 -3.74238e-08 1.35002e-09)

surfaceFieldValue massFlowAtFilter_82 write:
    sum(fz_solid_82) of phi = -2.96653e-05

volFieldValue volFieldValue_83 write:
    volIntegrate(cz_solid_83) of U = (-2.58114e-09 -4.94779e-08 3.40776e-09)

surfaceFieldValue massFlowAtFilter_83 write:
    sum(fz_solid_83) of phi = 0.000537798

volFieldValue volFieldValue_84 write:
    volIntegrate(cz_solid_84) of U = (-1.53926e-09 -5.10879e-08 8.08574e-09)

surfaceFieldValue massFlowAtFilter_84 write:
    sum(fz_solid_84) of phi = 0.000856415

volFieldValue volFieldValue_85 write:
    volIntegrate(cz_solid_85) of U = (3.2101e-09 -4.92915e-08 9.9864e-09)

surfaceFieldValue massFlowAtFilter_85 write:
    sum(fz_solid_85) of phi = 2.97954e-05

volFieldValue volFieldValue_86 write:
    volIntegrate(cz_solid_86) of U = (4.64148e-09 -3.22428e-08 6.51757e-09)

surfaceFieldValue massFlowAtFilter_86 write:
    sum(fz_solid_86) of phi = -0.00106926

volFieldValue volFieldValue_87 write:
    volIntegrate(cz_solid_87) of U = (4.54768e-09 -2.43427e-08 6.24614e-09)

surfaceFieldValue massFlowAtFilter_87 write:
    sum(fz_solid_87) of phi = 0.00225916

volFieldValue volFieldValue_88 write:
    volIntegrate(cz_solid_88) of U = (7.96814e-09 -1.85723e-08 4.42396e-09)

surfaceFieldValue massFlowAtFilter_88 write:
    sum(fz_solid_88) of phi = -0.000409685

volFieldValue volFieldValue_89 write:
    volIntegrate(cz_solid_89) of U = (7.72375e-09 -3.28269e-08 -5.0699e-10)

surfaceFieldValue massFlowAtFilter_89 write:
    sum(fz_solid_89) of phi = 1.24081e-05

volFieldValue volFieldValue_90 write:
    volIntegrate(cz_solid_90) of U = (2.99034e-09 -2.84877e-08 -2.69416e-09)

surfaceFieldValue massFlowAtFilter_90 write:
    sum(fz_solid_90) of phi = -0.000759491

volFieldValue volFieldValue_91 write:
    volIntegrate(cz_solid_91) of U = (1.29914e-09 -6.41001e-08 -1.40697e-09)

surfaceFieldValue massFlowAtFilter_91 write:
    sum(fz_solid_91) of phi = -4.62541e-05

volFieldValue volFieldValue_92 write:
    volIntegrate(cz_solid_92) of U = (7.46565e-10 -7.58964e-08 -1.53502e-09)

surfaceFieldValue massFlowAtFilter_92 write:
    sum(fz_solid_92) of phi = 3.12871e-05

volFieldValue volFieldValue_93 write:
    volIntegrate(cz_solid_93) of U = (-7.17792e-10 -6.53712e-08 -2.47645e-09)

surfaceFieldValue massFlowAtFilter_93 write:
    sum(fz_solid_93) of phi = -0.000200095

volFieldValue volFieldValue_94 write:
    volIntegrate(cz_solid_94) of U = (-2.63441e-09 -8.7687e-09 -1.59185e-09)

surfaceFieldValue massFlowAtFilter_94 write:
    sum(fz_solid_94) of phi = 0.000376794

volFieldValue volFieldValue_95 write:
    volIntegrate(cz_solid_95) of U = (-1.80296e-09 4.10904e-08 -9.96965e-10)

surfaceFieldValue massFlowAtFilter_95 write:
    sum(fz_solid_95) of phi = -1.3644e-05

volFieldValue volFieldValue_96 write:
    volIntegrate(cz_solid_96) of U = (-9.58187e-10 6.19711e-08 -7.70294e-10)

surfaceFieldValue massFlowAtFilter_96 write:
    sum(fz_solid_96) of phi = 0.000190325

volFieldValue volFieldValue_97 write:
    volIntegrate(cz_solid_97) of U = (-5.23012e-10 7.35336e-08 -1.09373e-10)

surfaceFieldValue massFlowAtFilter_97 write:
    sum(fz_solid_97) of phi = 0.00020528

volFieldValue volFieldValue_98 write:
    volIntegrate(cz_solid_98) of U = (-5.69367e-10 5.17394e-08 1.7034e-10)

surfaceFieldValue massFlowAtFilter_98 write:
    sum(fz_solid_98) of phi = -0.000126138

volFieldValue volFieldValue_99 write:
    volIntegrate(cz_solid_99) of U = (-5.93213e-10 2.59176e-08 3.83584e-10)

surfaceFieldValue massFlowAtFilter_99 write:
    sum(fz_solid_99) of phi = 1.58314e-05

Time = 1021

DILUPBiCG:  Solving for Ux, Initial residual = 1.31206e-07, Final residual = 1.31206e-07, No Iterations 0
DILUPBiCG:  Solving for Uy, Initial residual = 1.32271e-07, Final residual = 1.32271e-07, No Iterations 0
DILUPBiCG:  Solving for Uz, Initial residual = 2.6787e-07, Final residual = 2.6787e-07, No Iterations 0
DICPCG:  Solving for p, Initial residual = 0.00101114, Final residual = 9.81059e-05, No Iterations 16
DICPCG:  Solving for p, Initial residual = 0.000238708, Final residual = 2.36123e-05, No Iterations 22
DICPCG:  Solving for p, Initial residual = 5.40671e-05, Final residual = 9.68858e-06, No Iterations 80
time step continuity errors : sum local = 8.9006e-05, global = -1.36864e-05, cumulative = -0.00601528
DILUPBiCG:  Solving for epsilon, Initial residual = 0.000728807, Final residual = 4.01173e-07, No Iterations 3
DILUPBiCG:  Solving for k, Initial residual = 0.000878354, Final residual = 4.44116e-07, No Iterations 3
ExecutionTime = 2064.78 s  ClockTime = 2155 s

Time = 1022

DILUPBiCG:  Solving for Ux, Initial residual = 1.30684e-07, Final residual = 1.30684e-07, No Iterations 0
DILUPBiCG:  Solving for Uy, Initial residual = 1.32336e-07, Final residual = 1.32336e-07, No Iterations 0
DILUPBiCG:  Solving for Uz, Initial residual = 2.66892e-07, Final residual = 2.66892e-07, No Iterations 0
DICPCG:  Solving for p, Initial residual = 0.00101027, Final residual = 9.68961e-05, No Iterations 16
DICPCG:  Solving for p, Initial residual = 0.000237566, Final residual = 2.31013e-05, No Iterations 22
DICPCG:  Solving for p, Initial residual = 5.34901e-05, Final residual = 9.98998e-06, No Iterations 80
time step continuity errors : sum local = 9.18099e-05, global = -1.44215e-05, cumulative = -0.0060297
DILUPBiCG:  Solving for epsilon, Initial residual = 0.00072755, Final residual = 3.99391e-07, No Iterations 3
DILUPBiCG:  Solving for k, Initial residual = 0.000876407, Final residual = 4.42628e-07, No Iterations 3
ExecutionTime = 2066.51 s  ClockTime = 2156 s

Time = 1023

DILUPBiCG:  Solving for Ux, Initial residual = 1.30171e-07, Final residual = 1.30171e-07, No Iterations 0
DILUPBiCG:  Solving for Uy, Initial residual = 1.32403e-07, Final residual = 1.32403e-07, No Iterations 0
DILUPBiCG:  Solving for Uz, Initial residual = 2.65918e-07, Final residual = 2.65918e-07, No Iterations 0
DICPCG:  Solving for p, Initial residual = 0.00101214, Final residual = 9.58424e-05, No Iterations 16
DICPCG:  Solving for p, Initial residual = 0.00023656, Final residual = 2.24861e-05, No Iterations 22
DICPCG:  Solving for p, Initial residual = 5.28585e-05, Final residual = 9.85367e-06, No Iterations 84
time step continuity errors : sum local = 9.05938e-05, global = -1.53466e-05, cumulative = -0.00604505
DILUPBiCG:  Solving for epsilon, Initial residual = 0.000726335, Final residual = 3.97911e-07, No Iterations 3
DILUPBiCG:  Solving for k, Initial residual = 0.000874476, Final residual = 4.41237e-07, No Iterations 3
ExecutionTime = 2068.29 s  ClockTime = 2158 s

Time = 1024

DILUPBiCG:  Solving for Ux, Initial residual = 1.29663e-07, Final residual = 1.29663e-07, No Iterations 0
DILUPBiCG:  Solving for Uy, Initial residual = 1.32471e-07, Final residual = 1.32471e-07, No Iterations 0
DILUPBiCG:  Solving for Uz, Initial residual = 2.64945e-07, Final residual = 2.64945e-07, No Iterations 0
DICPCG:  Solving for p, Initial residual = 0.00100934, Final residual = 9.43665e-05, No Iterations 16
DICPCG:  Solving for p, Initial residual = 0.000234837, Final residual = 2.17148e-05, No Iterations 22
DICPCG:  Solving for p, Initial residual = 5.19297e-05, Final residual = 9.90765e-06, No Iterations 88
time step continuity errors : sum local = 9.11283e-05, global = -1.65367e-05, cumulative = -0.00606159
DILUPBiCG:  Solving for epsilon, Initial residual = 0.000725139, Final residual = 3.96778e-07, No Iterations 3
DILUPBiCG:  Solving for k, Initial residual = 0.000872577, Final residual = 4.3989e-07, No Iterations 3
ExecutionTime = 2070.1 s  ClockTime = 2160 s

Time = 1025

DILUPBiCG:  Solving for Ux, Initial residual = 1.2916e-07, Final residual = 1.2916e-07, No Iterations 0
DILUPBiCG:  Solving for Uy, Initial residual = 1.32541e-07, Final residual = 1.32541e-07, No Iterations 0
DILUPBiCG:  Solving for Uz, Initial residual = 2.63968e-07, Final residual = 2.63968e-07, No Iterations 0
DICPCG:  Solving for p, Initial residual = 0.00100831, Final residual = 9.29562e-05, No Iterations 16
DICPCG:  Solving for p, Initial residual = 0.000233461, Final residual = 2.11159e-05, No Iterations 22
DICPCG:  Solving for p, Initial residual = 5.12037e-05, Final residual = 9.85572e-06, No Iterations 232
time step continuity errors : sum local = 9.06886e-05, global = 1.8886e-07, cumulative = -0.0060614
DILUPBiCG:  Solving for epsilon, Initial residual = 0.000724087, Final residual = 3.97209e-07, No Iterations 3
DILUPBiCG:  Solving for k, Initial residual = 0.000870761, Final residual = 4.38554e-07, No Iterations 3
ExecutionTime = 2072.9 s  ClockTime = 2163 s

Time = 1026

DILUPBiCG:  Solving for Ux, Initial residual = 1.2868e-07, Final residual = 1.2868e-07, No Iterations 0
DILUPBiCG:  Solving for Uy, Initial residual = 1.32637e-07, Final residual = 1.32637e-07, No Iterations 0
DILUPBiCG:  Solving for Uz, Initial residual = 2.63023e-07, Final residual = 2.63023e-07, No Iterations 0
DICPCG:  Solving for p, Initial residual = 0.00100375, Final residual = 0.000100285, No Iterations 15
DICPCG:  Solving for p, Initial residual = 0.00023752, Final residual = 2.35212e-05, No Iterations 21
DICPCG:  Solving for p, Initial residual = 5.34814e-05, Final residual = 9.15199e-06, No Iterations 38
time step continuity errors : sum local = 8.43445e-05, global = -1.16688e-05, cumulative = -0.00607307
DILUPBiCG:  Solving for epsilon, Initial residual = 0.000722926, Final residual = 3.95599e-07, No Iterations 3
DILUPBiCG:  Solving for k, Initial residual = 0.00086891, Final residual = 4.37337e-07, No Iterations 3
ExecutionTime = 2074.31 s  ClockTime = 2164 s

Time = 1027

DILUPBiCG:  Solving for Ux, Initial residual = 1.28206e-07, Final residual = 1.28206e-07, No Iterations 0
DILUPBiCG:  Solving for Uy, Initial residual = 1.32699e-07, Final residual = 1.32699e-07, No Iterations 0
DILUPBiCG:  Solving for Uz, Initial residual = 2.62037e-07, Final residual = 2.62037e-07, No Iterations 0
DICPCG:  Solving for p, Initial residual = 0.00100381, Final residual = 9.87425e-05, No Iterations 15
DICPCG:  Solving for p, Initial residual = 0.000236248, Final residual = 2.2991e-05, No Iterations 21
DICPCG:  Solving for p, Initial residual = 5.27622e-05, Final residual = 9.50412e-06, No Iterations 39
time step continuity errors : sum local = 8.76266e-05, global = -9.02294e-06, cumulative = -0.00608209
DILUPBiCG:  Solving for epsilon, Initial residual = 0.000721874, Final residual = 3.96383e-07, No Iterations 3
DILUPBiCG:  Solving for k, Initial residual = 0.000867122, Final residual = 4.36236e-07, No Iterations 3
ExecutionTime = 2075.74 s  ClockTime = 2166 s

Time = 1028

DILUPBiCG:  Solving for Ux, Initial residual = 1.27735e-07, Final residual = 1.27735e-07, No Iterations 0
DILUPBiCG:  Solving for Uy, Initial residual = 1.32767e-07, Final residual = 1.32767e-07, No Iterations 0
DILUPBiCG:  Solving for Uz, Initial residual = 2.6107e-07, Final residual = 2.6107e-07, No Iterations 0
DICPCG:  Solving for p, Initial residual = 0.00100036, Final residual = 9.73006e-05, No Iterations 15
DICPCG:  Solving for p, Initial residual = 0.000234389, Final residual = 2.27818e-05, No Iterations 21
DICPCG:  Solving for p, Initial residual = 5.22473e-05, Final residual = 9.60308e-06, No Iterations 58
time step continuity errors : sum local = 8.85803e-05, global = -5.85024e-06, cumulative = -0.00608794
DILUPBiCG:  Solving for epsilon, Initial residual = 0.000720806, Final residual = 3.95528e-07, No Iterations 3
DILUPBiCG:  Solving for k, Initial residual = 0.000865362, Final residual = 4.35158e-07, No Iterations 3
ExecutionTime = 2077.31 s  ClockTime = 2167 s

Time = 1029

DILUPBiCG:  Solving for Ux, Initial residual = 1.27249e-07, Final residual = 1.27249e-07, No Iterations 0
DILUPBiCG:  Solving for Uy, Initial residual = 1.32836e-07, Final residual = 1.32836e-07, No Iterations 0
DILUPBiCG:  Solving for Uz, Initial residual = 2.60074e-07, Final residual = 2.60074e-07, No Iterations 0
DICPCG:  Solving for p, Initial residual = 0.00100138, Final residual = 9.75862e-05, No Iterations 15
DICPCG:  Solving for p, Initial residual = 0.000234532, Final residual = 2.26478e-05, No Iterations 21
DICPCG:  Solving for p, Initial residual = 5.20915e-05, Final residual = 9.65195e-06, No Iterations 56
time step continuity errors : sum local = 8.90753e-05, global = -4.04316e-06, cumulative = -0.00609198
DILUPBiCG:  Solving for epsilon, Initial residual = 0.000719753, Final residual = 3.9515e-07, No Iterations 3
DILUPBiCG:  Solving for k, Initial residual = 0.000863641, Final residual = 4.3413e-07, No Iterations 3
ExecutionTime = 2078.85 s  ClockTime = 2169 s

Time = 1030

DILUPBiCG:  Solving for Ux, Initial residual = 1.2678e-07, Final residual = 1.2678e-07, No Iterations 0
DILUPBiCG:  Solving for Uy, Initial residual = 1.32906e-07, Final residual = 1.32906e-07, No Iterations 0
DILUPBiCG:  Solving for Uz, Initial residual = 2.59095e-07, Final residual = 2.59095e-07, No Iterations 0
DICPCG:  Solving for p, Initial residual = 0.00099889, Final residual = 9.68975e-05, No Iterations 15
DICPCG:  Solving for p, Initial residual = 0.000233552, Final residual = 2.2194e-05, No Iterations 21
DICPCG:  Solving for p, Initial residual = 5.16302e-05, Final residual = 9.67944e-06, No Iterations 10
time step continuity errors : sum local = 8.9371e-05, global = -7.40217e-06, cumulative = -0.00609939
DILUPBiCG:  Solving for epsilon, Initial residual = 0.000718727, Final residual = 3.94905e-07, No Iterations 3
DILUPBiCG:  Solving for k, Initial residual = 0.000861944, Final residual = 4.33167e-07, No Iterations 3
ExecutionTime = 2080.08 s  ClockTime = 2170 s


SIMPLE solution converged in 1030 iterations

End

Finalising parallel run
