/*---------------------------------------------------------------------------*\
  =========                 |
  \\      /  F ield         | OpenFOAM: The Open Source CFD Toolbox
   \\    /   O peration     | Website:  https://openfoam.org
    \\  /    A nd           | Version:  6
     \\/     M anipulation  |
\*---------------------------------------------------------------------------*/
Build  : 6
Exec   : bouSimpleFoam -parallel
Date   : Aug 06 2020
Time   : 23:39:56
Host   : "emps-ugcs2"
PID    : 7137
I/O    : uncollated
Case   : /home/links/jjw230/Optimisation_second_draft/Case3
nProcs : 4
Slaves : 
3
(
"emps-ugcs2.7138"
"emps-ugcs2.7139"
"emps-ugcs2.7140"
)

Pstream initialized with:
    floatTransfer      : 0
    nProcsSimpleSum    : 0
    commsType          : nonBlocking
    polling iterations : 0
sigFpe : Enabling floating point exception trapping (FOAM_SIGFPE).
fileModificationChecking : Monitoring run-time modified files using timeStampMaster (fileModificationSkew 10)
allowSystemOperations : Allowing user-supplied system call operations

// * * * * * * * * * * * * * * * * * * * * * * * * * * * * * * * * * * * * * //
Create time

Create mesh for time = 0


SIMPLE: Convergence criteria found
        p: tolerance 0.001
        U: tolerance 0.001
        "(k|epsilon)": tolerance 0.001
        theta: tolerance 0.001

Reading field p

Reading field U

Reading field theta

Reading/calculating face flux field phi

Selecting incompressible transport model Newtonian
Selecting turbulence model type RAS
Selecting RAS turbulence model RNGkEpsilon
RAS
{
    RASModel        RNGkEpsilon;
    turbulence      on;
    printCoeffs     on;
    Cmu             0.0845;
    C1              1.42;
    C2              1.68;
    C3      mpirun: abort is already in progress...hit ctrl-c again to forcibly terminate

          4.38;
    beta            0.012;
}

No MRF models present

Creating finite volume options from "system/fvOptions"

Selecting finite volume options model type explicitPorositySource
    Source: source0
    - selecting cells using cellZone cz_solid_0
    - selected 2072 cell(s) with volume 0.00214219
Porosity region source0:
    selecting model: DarcyForchheimer
    creating porous zone: cz_solid_0
Selecting finite volume options model type explicitPorositySource
    Source: source1
    - selecting cells using cellZone cz_solid_1
    - selected 2082 cell(s) with volume 0.00214494
Porosity region source1:
    selecting model: DarcyForchheimer
    creating porous zone: cz_solid_1
Selecting finite volume options model type explicitPorositySource
    Source: source2
    - selecting cells using cellZone cz_solid_2
    - selected 2030 cell(s) with volume 0.0021418
Porosity region source2:
    selecting model: DarcyForchheimer
    creating porous zone: cz_solid_2
Selecting finite volume options model type explicitPorositySource
    Source: source3
    - selecting cells using cellZone cz_solid_3
    - selected 1925 cell(s) with volume 0.00214368
Porosity region source3:
    selecting model: DarcyForchheimer
    creating porous zone: cz_solid_3
Selecting finite volume options model type explicitPorositySource
    Source: source4
    - selecting cells using cellZone cz_solid_4
    - selected 1344 cell(s) with volume 0.00213925
Porosity region source4:
    selecting model: DarcyForchheimer
    creating porous zone: cz_solid_4
Selecting finite volume options model type explicitPorositySource
    Source: source5
    - selecting cells using cellZone cz_solid_5
    - selected 2044 cell(s) with volume 0.00214209
Porosity region source5:
    selecting model: DarcyForchheimer
    creating porous zone: cz_solid_5
Selecting finite volume options model type explicitPorositySource
    Source: source6
    - selecting cells using cellZone cz_solid_6
    - selected 1960 cell(s) with volume 0.00214323
Porosity region source6:
    selecting model: DarcyForchheimer
    creating porous zone: cz_solid_6
Selecting finite volume options model type explicitPorositySource
    Source: source7
    - selecting cells using cellZone cz_solid_7
    - selected 2027 cell(s) with volume 0.00214444
Porosity region source7:
    selecting model: DarcyForchheimer
    creating porous zone: cz_solid_7
Selecting finite volume options model type explicitPorositySource
    Source: source8
    - selecting cells using cellZone cz_solid_8
    - selected 1456 cell(s) with volume 0.0021394
Porosity region source8:
    selecting model: DarcyForchheimer
    creating porous zone: cz_solid_8
Selecting finite volume options model type explicitPorositySource
    Source: source9
    - selecting cells using cellZone cz_solid_9
    - selected 2016 cell(s) with volume 0.00214426
Porosity region source9:
    selecting model: DarcyForchheimer
    creating porous zone: cz_solid_9
Selecting finite volume options model type explicitPorositySource
    Source: source10
    - selecting cells using cellZone cz_solid_10
    - selected 2017 cell(s) with volume 0.0021447
Porosity region source10:
    selecting model: DarcyForchheimer
    creating porous zone: cz_solid_10
Selecting finite volume options model type explicitPorositySource
    Source: source11
    - selecting cells using cellZone cz_solid_11
    - selected 2072 cell(s) with volume 0.00214118
Porosity region source11:
    selecting model: DarcyForchheimer
    creating porous zone: cz_solid_11
Selecting finite volume options model type explicitPorositySource
    Source: source12
    - selecting cells using cellZone cz_solid_12
    - selected 2149 cell(s) with volume 0.00214455
Porosity region source12:
    selecting model: DarcyForchheimer
    creating porous zone: cz_solid_12
Selecting finite volume options model type explicitPorositySource
    Source: source13
    - selecting cells using cellZone cz_solid_13
    - selected 1797 cell(s) with volume 0.00214285
Porosity region source13:
    selecting model: DarcyForchheimer
    creating porous zone: cz_solid_13
Selecting finite volume options model type explicitPorositySource
    Source: source14
    - selecting cells using cellZone cz_solid_14
    - selected 1915 cell(s) with volume 0.00214564
Porosity region source14:
    selecting model: DarcyForchheimer
    creating porous zone: cz_solid_14
Selecting finite volume options model type explicitPorositySource
    Source: source15
    - selecting cells using cellZone cz_solid_15
    - selected 1938 cell(s) with volume 0.00214249
Porosity region source15:
    selecting model: DarcyForchheimer
    creating porous zone: cz_solid_15
Selecting finite volume options model type explicitPorositySource
    Source: source16
    - selecting cells using cellZone cz_solid_16
    - selected 1789 cell(s) with volume 0.0021418
Porosity region source16:
    selecting model: DarcyForchheimer
    creating porous zone: cz_solid_16
Selecting finite volume options model type explicitPorositySource
    Source: source17
    - selecting cells using cellZone cz_solid_17
    - selected 1906 cell(s) with volume 0.00213761
Porosity region source17:
    selecting model: DarcyForchheimer
    creating porous zone: cz_solid_17
Selecting finite volume options model type explicitPorositySource
    Source: source18
    - selecting cells using cellZone cz_solid_18
    - selected 1915 cell(s) with volume 0.00214502
Porosity region source18:
    selecting model: DarcyForchheimer
    creating porous zone: cz_solid_18
Selecting finite volume options model type explicitPorositySource
    Source: source19
    - selecting cells using cellZone cz_solid_19
    - selected 1918 cell(s) with volume 0.0021444
Porosity region source19:
    selecting model: DarcyForchheimer
    creating porous zone: cz_solid_19
Selecting finite volume options model type explicitPorositySource
    Source: source20
    - selecting cells using cellZone cz_solid_20
    - selected 2192 cell(s) with volume 0.00214221
Porosity region source20:
    selecting model: DarcyForchheimer
    creating porous zone: cz_solid_20
Selecting finite volume options model type explicitPorositySource
    Source: source21
    - selecting cells using cellZone cz_solid_21
    - selected 2192 cell(s) with volume 0.00214397
Porosity region source21:
    selecting model: DarcyForchheimer
    creating porous zone: cz_solid_21
Selecting finite volume options model type explicitPorositySource
    Source: source22
    - selecting cells using cellZone cz_solid_22
    - selected 2150 cell(s) with volume 0.00214196
Porosity region source22:
    selecting model: DarcyForchheimer
    creating porous zone: cz_solid_22
Selecting finite volume options model type explicitPorositySource
    Source: source23
    - selecting cells using cellZone cz_solid_23
    - selected 2044 cell(s) with volume 0.00214386
Porosity region source23:
    selecting model: DarcyForchheimer
    creating porous zone: cz_solid_23
Selecting finite volume options model type explicitPorositySource
    Source: source24
    - selecting cells using cellZone cz_solid_24
    - selected 1436 cell(s) with volume 0.00213915
Porosity region source24:
    selecting model: DarcyForchheimer
    creating porous zone: cz_solid_24
Selecting finite volume options model type explicitPorositySource
    Source: source25
    - selecting cells using cellZone cz_solid_25
    - selected 2136 cell(s) with volume 0.00214237
Porosity region source25:
    selecting model: DarcyForchheimer
    creating porous zone: cz_solid_25
Selecting finite volume options model type explicitPorositySource
    Source: source26
    - selecting cells using cellZone cz_solid_26
    - selected 2080 cell(s) with volume 0.00214369
Porosity region source26:
    selecting model: DarcyForchheimer
    creating porous zone: cz_solid_26
Selecting finite volume options model type explicitPorositySource
    Source: source27
    - selecting cells using cellZone cz_solid_27
    - selected 2122 cell(s) with volume 0.00214409
Porosity region source27:
    selecting model: DarcyForchheimer
    creating porous zone: cz_solid_27
Selecting finite volume options model type explicitPorositySource
    Source: source28
    - selecting cells using cellZone cz_solid_28
    - selected 1548 cell(s) with volume 0.00213953
Porosity region source28:
    selecting model: DarcyForchheimer
    creating porous zone: cz_solid_28
Selecting finite volume options model type explicitPorositySource
    Source: source29
    - selecting cells using cellZone cz_solid_29
    - selected 2080 cell(s) with volume 0.00214388
Porosity region source29:
    selecting model: DarcyForchheimer
    creating porous zone: cz_solid_29
Selecting finite volume options model type explicitPorositySource
    Source: source30
    - selecting cells using cellZone cz_solid_30
    - selected 2114 cell(s) with volume 0.00214493
Porosity region source30:
    selecting model: DarcyForchheimer
    creating porous zone: cz_solid_30
Selecting finite volume options model type explicitPorositySource
    Source: source31
    - selecting cells using cellZone cz_solid_31
    - selected 2192 cell(s) with volume 0.00214147
Porosity region source31:
    selecting model: DarcyForchheimer
    creating porous zone: cz_solid_31
Selecting finite volume options model type explicitPorositySource
    Source: source32
    - selecting cells using cellZone cz_solid_32
    - selected 2268 cell(s) with volume 0.0021449
Porosity region source32:
    selecting model: DarcyForchheimer
    creating porous zone: cz_solid_32
Selecting finite volume options model type explicitPorositySource
    Source: source33
    - selecting cells using cellZone cz_solid_33
    - selected 1858 cell(s) with volume 0.00214292
Porosity region source33:
    selecting model: DarcyForchheimer
    creating porous zone: cz_solid_33
Selecting finite volume options model type explicitPorositySource
    Source: source34
    - selecting cells using cellZone cz_solid_34
    - selected 1994 cell(s) with volume 0.00214483
Porosity region source34:
    selecting model: DarcyForchheimer
    creating porous zone: cz_solid_34
Selecting finite volume options model type explicitPorositySource
    Source: source35
    - selecting cells using cellZone cz_solid_35
    - selected 2080 cell(s) with volume 0.0021432
Porosity region source35:
    selecting model: DarcyForchheimer
    creating porous zone: cz_solid_35
Selecting finite volume options model type explicitPorositySource
    Source: source36
    - selecting cells using cellZone cz_solid_36
    - selected 1858 cell(s) with volume 0.00214236
Porosity region source36:
    selecting model: DarcyForchheimer
    creating porous zone: cz_solid_36
Selecting finite volume options model type explicitPorositySource
    Source: source37
    - selecting cells using cellZone cz_solid_37
    - selected 2022 cell(s) with volume 0.00213913
Porosity region source37:
    selecting model: DarcyForchheimer
    creating porous zone: cz_solid_37
Selecting finite volume options model type explicitPorositySource
    Source: source38
    - selecting cells using cellZone cz_solid_38
    - selected 1978 cell(s) with volume 0.00214528
Porosity region source38:
    selecting model: DarcyForchheimer
    creating porous zone: cz_solid_38
Selecting finite volume options model type explicitPorositySource
    Source: source39
    - selecting cells using cellZone cz_solid_39
    - selected 2010 cell(s) with volume 0.00214507
Porosity region source39:
    selecting model: DarcyForchheimer
    creating porous zone: cz_solid_39
Selecting finite volume options model type explicitPorositySource
    Source: source40
    - selecting cells using cellZone cz_solid_40
    - selected 2072 cell(s) with volume 0.00214204
Porosity region source40:
    selecting model: DarcyForchheimer
    creating porous zone: cz_solid_40
Selecting finite volume options model type explicitPorositySource
    Source: source41
    - selecting cells using cellZone cz_solid_41
    - selected 2100 cell(s) with volume 0.00214375
Porosity region source41:
    selecting model: DarcyForchheimer
    creating porous zone: cz_solid_41
Selecting finite volume options model type explicitPorositySource
    Source: source42
    - selecting cells using cellZone cz_solid_42
    - selected 2030 cell(s) with volume 0.00214189
Porosity region source42:
    selecting model: DarcyForchheimer
    creating porous zone: cz_solid_42
Selecting finite volume options model type explicitPorositySource
    Source: source43
    - selecting cells using cellZone cz_solid_43
    - selected 1925 cell(s) with volume 0.00214347
Porosity region source43:
    selecting model: DarcyForchheimer
    creating porous zone: cz_solid_43
Selecting finite volume options model type explicitPorositySource
    Source: source44
    - selecting cells using cellZone cz_solid_44
    - selected 1344 cell(s) with volume 0.00213914
Porosity region source44:
    selecting model: DarcyForchheimer
    creating porous zone: cz_solid_44
Selecting finite volume options model type explicitPorositySource
    Source: source45
    - selecting cells using cellZone cz_solid_45
    - selected 2044 cell(s) with volume 0.0021422
Porosity region source45:
    selecting model: DarcyForchheimer
    creating porous zone: cz_solid_45
Selecting finite volume options model type explicitPorositySource
    Source: source46
    - selecting cells using cellZone cz_solid_46
    - selected 1960 cell(s) with volume 0.00214355
Porosity region source46:
    selecting model: DarcyForchheimer
    creating porous zone: cz_solid_46
Selecting finite volume options model type explicitPorositySource
    Source: source47
    - selecting cells using cellZone cz_solid_47
    - selected 2030 cell(s) with volume 0.00214369
Porosity region source47:
    selecting model: DarcyForchheimer
    creating porous zone: cz_solid_47
Selecting finite volume options model type explicitPorositySource
    Source: source48
    - selecting cells using cellZone cz_solid_48
    - selected 1456 cell(s) with volume 0.00213955
Porosity region source48:
    selecting model: DarcyForchheimer
    creating porous zone: cz_solid_48
Selecting finite volume options model type explicitPorositySource
    Source: source49
    - selecting cells using cellZone cz_solid_49
    - selected 1960 cell(s) with volume 0.00214381
Porosity region source49:
    selecting model: DarcyForchheimer
    creating porous zone: cz_solid_49
Selecting finite volume options model type explicitPorositySource
    Source: source50
    - selecting cells using cellZone cz_solid_50
    - selected 1993 cell(s) with volume 0.00214497
Porosity region source50:
    selecting model: DarcyForchheimer
    creating porous zone: cz_solid_50
Selecting finite volume options model type explicitPorositySource
    Source: source51
    - selecting cells using cellZone cz_solid_51
    - selected 2072 cell(s) with volume 0.00214127
Porosity region source51:
    selecting model: DarcyForchheimer
    creating porous zone: cz_solid_51
Selecting finite volume options model type explicitPorositySource
    Source: source52
    - selecting cells using cellZone cz_solid_52
    - selected 2149 cell(s) with volume 0.00214476
Porosity region source52:
    selecting model: DarcyForchheimer
    creating porous zone: cz_solid_52
Selecting finite volume options model type explicitPorositySource
    Source: source53
    - selecting cells using cellZone cz_solid_53
    - selected 1801 cell(s) with volume 0.00214274
Porosity region source53:
    selecting model: DarcyForchheimer
    creating porous zone: cz_solid_53
Selecting finite volume options model type explicitPorositySource
    Source: source54
    - selecting cells using cellZone cz_solid_54
    - selected 1894 cell(s) with volume 0.00214499
Porosity region source54:
    selecting model: DarcyForchheimer
    creating porous zone: cz_solid_54
Selecting finite volume options model type explicitPorositySource
    Source: source55
    - selecting cells using cellZone cz_solid_55
    - selected 1938 cell(s) with volume 0.00214276
Porosity region source55:
    selecting model: DarcyForchheimer
    creating porous zone: cz_solid_55
Selecting finite volume options model type explicitPorositySource
    Source: source56
    - selecting cells using cellZone cz_solid_56
    - selected 1793 cell(s) with volume 0.00214209
Porosity region source56:
    selecting model: DarcyForchheimer
    creating porous zone: cz_solid_56
Selecting finite volume options model type explicitPorositySource
    Source: source57
    - selecting cells using cellZone cz_solid_57
    - selected 1896 cell(s) with volume 0.0021382
Porosity region source57:
    selecting model: DarcyForchheimer
    creating porous zone: cz_solid_57
Selecting finite volume options model type explicitPorositySource
    Source: source58
    - selecting cells using cellZone cz_solid_58
    - selected 1894 cell(s) with volume 0.00214463
Porosity region source58:
    selecting model: DarcyForchheimer
    creating porous zone: cz_solid_58
Selecting finite volume options model type explicitPorositySource
    Source: source59
    - selecting cells using cellZone cz_solid_59
    - selected 1918 cell(s) with volume 0.00214466
Porosity region source59:
    selecting model: DarcyForchheimer
    creating porous zone: cz_solid_59
Selecting finite volume options model type explicitPorositySource
    Source: source60
    - selecting cells using cellZone cz_solid_60
    - selected 2100 cell(s) with volume 0.00214191
Porosity region source60:
    selecting model: DarcyForchheimer
    creating porous zone: cz_solid_60
Selecting finite volume options model type explicitPorositySource
    Source: source61
    - selecting cells using cellZone cz_solid_61
    - selected 2100 cell(s) with volume 0.00214367
Porosity region source61:
    selecting model: DarcyForchheimer
    creating porous zone: cz_solid_61
Selecting finite volume options model type explicitPorositySource
    Source: source62
    - selecting cells using cellZone cz_solid_62
    - selected 2058 cell(s) with volume 0.0021416
Porosity region source62:
    selecting model: DarcyForchheimer
    creating porous zone: cz_solid_62
Selecting finite volume options model type explicitPorositySource
    Source: source63
    - selecting cells using cellZone cz_solid_63
    - selected 1946 cell(s) with volume 0.00214358
Porosity region source63:
    selecting model: DarcyForchheimer
    creating porous zone: cz_solid_63
Selecting finite volume options model type explicitPorositySource
    Source: source64
    - selecting cells using cellZone cz_solid_64
    - selected 1322 cell(s) with volume 0.00213903
Porosity region source64:
    selecting model: DarcyForchheimer
    creating porous zone: cz_solid_64
Selecting finite volume options model type explicitPorositySource
    Source: source65
    - selecting cells using cellZone cz_solid_65
    - selected 2044 cell(s) with volume 0.002142
Porosity region source65:
    selecting model: DarcyForchheimer
    creating porous zone: cz_solid_65
Selecting finite volume options model type explicitPorositySource
    Source: source66
    - selecting cells using cellZone cz_solid_66
    - selected 1988 cell(s) with volume 0.00214323
Porosity region source66:
    selecting model: DarcyForchheimer
    creating porous zone: cz_solid_66
Selecting finite volume options model type explicitPorositySource
    Source: source67
    - selecting cells using cellZone cz_solid_67
    - selected 2037 cell(s) with volume 0.0021436
Porosity region source67:
    selecting model: DarcyForchheimer
    creating porous zone: cz_solid_67
Selecting finite volume options model type explicitPorositySource
    Source: source68
    - selecting cells using cellZone cz_solid_68
    - selected 1434 cell(s) with volume 0.00213952
Porosity region source68:
    selecting model: DarcyForchheimer
    creating porous zone: cz_solid_68
Selecting finite volume options model type explicitPorositySource
    Source: source69
    - selecting cells using cellZone cz_solid_69
    - selected 2016 cell(s) with volume 0.00214364
Porosity region source69:
    selecting model: DarcyForchheimer
    creating porous zone: cz_solid_69
Selecting finite volume options model type explicitPorositySource
    Source: source70
    - selecting cells using cellZone cz_solid_70
    - selected 2028 cell(s) with volume 0.00214487
Porosity region source70:
    selecting model: DarcyForchheimer
    creating porous zone: cz_solid_70
Selecting finite volume options model type explicitPorositySource
    Source: source71
    - selecting cells using cellZone cz_solid_71
    - selected 2093 cell(s) with volume 0.00214108
Porosity region source71:
    selecting model: DarcyForchheimer
    creating porous zone: cz_solid_71
Selecting finite volume options model type explicitPorositySource
    Source: source72
    - selecting cells using cellZone cz_solid_72
    - selected 2170 cell(s) with volume 0.00214466
Porosity region source72:
    selecting model: DarcyForchheimer
    creating porous zone: cz_solid_72
Selecting finite volume options model type explicitPorositySource
    Source: source73
    - selecting cells using cellZone cz_solid_73
    - selected 1781 cell(s) with volume 0.00214207
Porosity region source73:
    selecting model: DarcyForchheimer
    creating porous zone: cz_solid_73
Selecting finite volume options model type explicitPorositySource
    Source: source74
    - selecting cells using cellZone cz_solid_74
    - selected 1907 cell(s) with volume 0.00214472
Porosity region source74:
    selecting model: DarcyForchheimer
    creating porous zone: cz_solid_74
Selecting finite volume options model type explicitPorositySource
    Source: source75
    - selecting cells using cellZone cz_solid_75
    - selected 1988 cell(s) with volume 0.00214304
Porosity region source75:
    selecting model: DarcyForchheimer
    creating porous zone: cz_solid_75
Selecting finite volume options model type explicitPorositySource
    Source: source76
    - selecting cells using cellZone cz_solid_76
    - selected 1781 cell(s) with volume 0.00214206
Porosity region source76:
    selecting model: DarcyForchheimer
    creating porous zone: cz_solid_76
Selecting finite volume options model type explicitPorositySource
    Source: source77
    - selecting cells using cellZone cz_solid_77
    - selected 1872 cell(s) with volume 0.0021378
Porosity region source77:
    selecting model: DarcyForchheimer
    creating porous zone: cz_solid_77
Selecting finite volume options model type explicitPorositySource
    Source: source78
    - selecting cells using cellZone cz_solid_78
    - selected 1900 cell(s) with volume 0.00214451
Porosity region source78:
    selecting model: DarcyForchheimer
    creating porous zone: cz_solid_78
Selecting finite volume options model type explicitPorositySource
    Source: source79
    - selecting cells using cellZone cz_solid_79
    - selected 1925 cell(s) with volume 0.00214441
Porosity region source79:
    selecting model: DarcyForchheimer
    creating porous zone: cz_solid_79
Selecting finite volume options model type explicitPorositySource
    Source: source80
    - selecting cells using cellZone cz_solid_80
    - selected 2123 cell(s) with volume 0.00214163
Porosity region source80:
    selecting model: DarcyForchheimer
    creating porous zone: cz_solid_80
Selecting finite volume options model type explicitPorositySource
    Source: source81
    - selecting cells using cellZone cz_solid_81
    - selected 2123 cell(s) with volume 0.00214384
Porosity region source81:
    selecting model: DarcyForchheimer
    creating porous zone: cz_solid_81
Selecting finite volume options model type explicitPorositySource
    Source: source82
    - selecting cells using cellZone cz_solid_82
    - selected 2084 cell(s) with volume 0.00214169
Porosity region source82:
    selecting model: DarcyForchheimer
    creating porous zone: cz_solid_82
Selecting finite volume options model type explicitPorositySource
    Source: source83
    - selecting cells using cellZone cz_solid_83
    - selected 1976 cell(s) with volume 0.00214326
Porosity region source83:
    selecting model: DarcyForchheimer
    creating porous zone: cz_solid_83
Selecting finite volume options model type explicitPorositySource
    Source: source84
    - selecting cells using cellZone cz_solid_84
    - selected 1400 cell(s) with volume 0.00213965
Porosity region source84:
    selecting model: DarcyForchheimer
    creating porous zone: cz_solid_84
Selecting finite volume options model type explicitPorositySource
    Source: source85
    - selecting cells using cellZone cz_solid_85
    - selected 2036 cell(s) with volume 0.00214188
Porosity region source85:
    selecting model: DarcyForchheimer
    creating porous zone: cz_solid_85
Selecting finite volume options model type explicitPorositySource
    Source: source86
    - selecting cells using cellZone cz_solid_86
    - selected 2025 cell(s) with volume 0.00214298
Porosity region source86:
    selecting model: DarcyForchheimer
    creating porous zone: cz_solid_86
Selecting finite volume options model type explicitPorositySource
    Source: source87
    - selecting cells using cellZone cz_solid_87
    - selected 2069 cell(s) with volume 0.00214357
Porosity region source87:
    selecting model: DarcyForchheimer
    creating porous zone: cz_solid_87
Selecting finite volume options model type explicitPorositySource
    Source: source88
    - selecting cells using cellZone cz_solid_88
    - selected 1505 cell(s) with volume 0.00213979
Porosity region source88:
    selecting model: DarcyForchheimer
    creating porous zone: cz_solid_88
Selecting finite volume options model type explicitPorositySource
    Source: source89
    - selecting cells using cellZone cz_solid_89
    - selected 2053 cell(s) with volume 0.00214324
Porosity region source89:
    selecting model: DarcyForchheimer
    creating porous zone: cz_solid_89
Selecting finite volume options model type explicitPorositySource
    Source: source90
    - selecting cells using cellZone cz_solid_90
    - selected 2054 cell(s) with volume 0.00214466
Porosity region source90:
    selecting model: DarcyForchheimer
    creating porous zone: cz_solid_90
Selecting finite volume options model type explicitPorositySource
    Source: source91
    - selecting cells using cellZone cz_solid_91
    - selected 2116 cell(s) with volume 0.00214072
Porosity region source91:
    selecting model: DarcyForchheimer
    creating porous zone: cz_solid_91
Selecting finite volume options model type explicitPorositySource
    Source: source92
    - selecting cells using cellZone cz_solid_92
    - selected 2186 cell(s) with volume 0.00214417
Porosity region source92:
    selecting model: DarcyForchheimer
    creating porous zone: cz_solid_92
Selecting finite volume options model type explicitPorositySource
    Source: source93
    - selecting cells using cellZone cz_solid_93
    - selected 1800 cell(s) with volume 0.00214217
Porosity region source93:
    selecting model: DarcyForchheimer
    creating porous zone: cz_solid_93
Selecting finite volume options model type explicitPorositySource
    Source: source94
    - selecting cells using cellZone cz_solid_94
    - selected 1916 cell(s) with volume 0.00214441
Porosity region source94:
    selecting model: DarcyForchheimer
    creating porous zone: cz_solid_94
Selecting finite volume options model type explicitPorositySource
    Source: source95
    - selecting cells using cellZone cz_solid_95
    - selected 2002 cell(s) with volume 0.00214271
Porosity region source95:
    selecting model: DarcyForchheimer
    creating porous zone: cz_solid_95
Selecting finite volume options model type explicitPorositySource
    Source: source96
    - selecting cells using cellZone cz_solid_96
    - selected 1800 cell(s) with volume 0.00214221
Porosity region source96:
    selecting model: DarcyForchheimer
    creating porous zone: cz_solid_96
Selecting finite volume options model type explicitPorositySource
    Source: source97
    - selecting cells using cellZone cz_solid_97
    - selected 1902 cell(s) with volume 0.00213721
Porosity region source97:
    selecting model: DarcyForchheimer
    creating porous zone: cz_solid_97
Selecting finite volume options model type explicitPorositySource
    Source: source98
    - selecting cells using cellZone cz_solid_98
    - selected 1930 cell(s) with volume 0.00214458
Porosity region source98:
    selecting model: DarcyForchheimer
    creating porous zone: cz_solid_98
Selecting finite volume options model type explicitPorositySource
    Source: source99
    - selecting cells using cellZone cz_solid_99
    - selected 1937 cell(s) with volume 0.00214448
Porosity region source99:
    selecting model: DarcyForchheimer
    creating porous zone: cz_solid_99

Starting time loop

forces porousforces:
--> FOAM Warning : 
    From function Foam::labelHashSet Foam::polyBoundaryMesh::patchSet(const Foam::UList<Foam::wordRe>&, bool, bool) const
    in file meshes/polyMesh/polyBoundaryMesh/polyBoundaryMesh.C at line 798
    Cannot find any patch or group names matching solid_to_fluid
    Including porosity effects


surfaceFieldValue massFlowAtFilter_0:
    total faces  = 1654
    total area   = 0.10167




surfaceFieldValue massFlowAtFilter_1:
    total faces  = 1722
    total area   = 0.101655




surfaceFieldValue massFlowAtFilter_2:
    total faces  = 1616
    total area   = 0.101677




surfaceFieldValue massFlowAtFilter_3:
    total faces  = 1674
    total area   = 0.101752




surfaceFieldValue massFlowAtFilter_4:
    total faces  = 1414
    total area   = 0.101623




surfaceFieldValue massFlowAtFilter_5:
    total faces  = 1618
    total area   = 0.101693




surfaceFieldValue massFlowAtFilter_6:
    total faces  = 1676
    total area   = 0.101735




surfaceFieldValue massFlowAtFilter_7:
    total faces  = 1641
    total area   = 0.101671




surfaceFieldValue massFlowAtFilter_8:
    total faces  = 1414
    total area   = 0.101645




surfaceFieldValue massFlowAtFilter_9:
    total faces  = 1700
    total area   = 0.101764




surfaceFieldValue massFlowAtFilter_10:
    total faces  = 1732
    total area   = 0.101666




surfaceFieldValue massFlowAtFilter_11:
    total faces  = 1724
    total area   = 0.101636




surfaceFieldValue massFlowAtFilter_12:
    total faces  = 1722
    total area   = 0.101672




surfaceFieldValue massFlowAtFilter_13:
    total faces  = 1610
    total area   = 0.101725




surfaceFieldValue massFlowAtFilter_14:
    total faces  = 1729
    total area   = 0.101704




surfaceFieldValue massFlowAtFilter_15:
    total faces  = 1648
    total area   = 0.101652




surfaceFieldValue massFlowAtFilter_16:
    total faces  = 1604
    total area   = 0.101684




surfaceFieldValue massFlowAtFilter_17:
    total faces  = 1552
    total area   = 0.101644




surfaceFieldValue massFlowAtFilter_18:
    total faces  = 1725
    total area   = 0.101698




surfaceFieldValue massFlowAtFilter_19:
    total faces  = 1646
    total area   = 0.10171




surfaceFieldValue massFlowAtFilter_20:
    total faces  = 1696
    total area   = 0.10165




surfaceFieldValue massFlowAtFilter_21:
    total faces  = 1768
    total area   = 0.101624




surfaceFieldValue massFlowAtFilter_22:
    total faces  = 1658
    total area   = 0.101644




surfaceFieldValue massFlowAtFilter_23:
    total faces  = 1718
    total area   = 0.101654




surfaceFieldValue massFlowAtFilter_24:
    total faces  = 1460
    total area   = 0.101578




surfaceFieldValue massFlowAtFilter_25:
    total faces  = 1660
    total area   = 0.101657




surfaceFieldValue massFlowAtFilter_26:
    total faces  = 1720
    total area   = 0.101702




surfaceFieldValue massFlowAtFilter_27:
    total faces  = 1680
    total area   = 0.101619




surfaceFieldValue massFlowAtFilter_28:
    total faces  = 1460
    total area   = 0.101589




surfaceFieldValue massFlowAtFilter_29:
    total faces  = 1720
    total area   = 0.101705




surfaceFieldValue massFlowAtFilter_30:
    total faces  = 1784
    total area   = 0.101632




surfaceFieldValue massFlowAtFilter_31:
    total faces  = 1768
    total area   = 0.10163




surfaceFieldValue massFlowAtFilter_32:
    total faces  = 1766
    total area   = 0.101622




surfaceFieldValue massFlowAtFilter_33:
    total faces  = 1636
    total area   = 0.101695




surfaceFieldValue massFlowAtFilter_34:
    total faces  = 1782
    total area   = 0.101624




surfaceFieldValue massFlowAtFilter_35:
    total faces  = 1698
    total area   = 0.101616




surfaceFieldValue massFlowAtFilter_36:
    total faces  = 1636
    total area   = 0.10169




surfaceFieldValue massFlowAtFilter_37:
    total faces  = 1600
    total area   = 0.101621




surfaceFieldValue massFlowAtFilter_38:
    total faces  = 1778
    total area   = 0.101671




surfaceFieldValue massFlowAtFilter_39:
    total faces  = 1690
    total area   = 0.101662




surfaceFieldValue massFlowAtFilter_40:
    total faces  = 1654
    total area   = 0.101695




surfaceFieldValue massFlowAtFilter_41:
    total faces  = 1724
    total area   = 0.101682




surfaceFieldValue massFlowAtFilter_42:
    total faces  = 1616
    total area   = 0.101693




surfaceFieldValue massFlowAtFilter_43:
    total faces  = 1674
    total area   = 0.101779




surfaceFieldValue massFlowAtFilter_44:
    total faces  = 1414
    total area   = 0.101646




surfaceFieldValue massFlowAtFilter_45:
    total faces  = 1618
    total area   = 0.101701




surfaceFieldValue massFlowAtFilter_46:
    total faces  = 1676
    total area   = 0.101782




surfaceFieldValue massFlowAtFilter_47:
    total faces  = 1636
    total area   = 0.101696




surfaceFieldValue massFlowAtFilter_48:
    total faces  = 1414
    total area   = 0.101644




surfaceFieldValue massFlowAtFilter_49:
    total faces  = 1676
    total area   = 0.101771




surfaceFieldValue massFlowAtFilter_50:
    total faces  = 1740
    total area   = 0.101713




surfaceFieldValue massFlowAtFilter_51:
    total faces  = 1724
    total area   = 0.101698




surfaceFieldValue massFlowAtFilter_52:
    total faces  = 1722
    total area   = 0.101716




surfaceFieldValue massFlowAtFilter_53:
    total faces  = 1610
    total area   = 0.101769




surfaceFieldValue massFlowAtFilter_54:
    total faces  = 1736
    total area   = 0.101712




surfaceFieldValue massFlowAtFilter_55:
    total faces  = 1648
    total area   = 0.101697




surfaceFieldValue massFlowAtFilter_56:
    total faces  = 1604
    total area   = 0.101727




surfaceFieldValue massFlowAtFilter_57:
    total faces  = 1536
    total area   = 0.101681




surfaceFieldValue massFlowAtFilter_58:
    total faces  = 1732
    total area   = 0.101752




surfaceFieldValue massFlowAtFilter_59:
    total faces  = 1646
    total area   = 0.101735




surfaceFieldValue massFlowAtFilter_60:
    total faces  = 1654
    total area   = 0.1017




surfaceFieldValue massFlowAtFilter_61:
    total faces  = 1724
    total area   = 0.101691




surfaceFieldValue massFlowAtFilter_62:
    total faces  = 1616
    total area   = 0.101698




surfaceFieldValue massFlowAtFilter_63:
    total faces  = 1674
    total area   = 0.101793




surfaceFieldValue massFlowAtFilter_64:
    total faces  = 1400
    total area   = 0.101635




surfaceFieldValue massFlowAtFilter_65:
    total faces  = 1618
    total area   = 0.101707




surfaceFieldValue massFlowAtFilter_66:
    total faces  = 1676
    total area   = 0.101783




surfaceFieldValue massFlowAtFilter_67:
    total faces  = 1639
    total area   = 0.101712




surfaceFieldValue massFlowAtFilter_68:
    total faces  = 1400
    total area   = 0.101644




surfaceFieldValue massFlowAtFilter_69:
    total faces  = 1688
    total area   = 0.1018




surfaceFieldValue massFlowAtFilter_70:
    total faces  = 1736
    total area   = 0.101726




surfaceFieldValue massFlowAtFilter_71:
    total faces  = 1724
    total area   = 0.101711




surfaceFieldValue massFlowAtFilter_72:
    total faces  = 1722
    total area   = 0.101716




surfaceFieldValue massFlowAtFilter_73:
    total faces  = 1595
    total area   = 0.101768




surfaceFieldValue massFlowAtFilter_74:
    total faces  = 1734
    total area   = 0.101725




surfaceFieldValue massFlowAtFilter_75:
    total faces  = 1654
    total area   = 0.101717




surfaceFieldValue massFlowAtFilter_76:
    total faces  = 1595
    total area   = 0.101751




surfaceFieldValue massFlowAtFilter_77:
    total faces  = 1526
    total area   = 0.101672




surfaceFieldValue massFlowAtFilter_78:
    total faces  = 1730
    total area   = 0.101778




surfaceFieldValue massFlowAtFilter_79:
    total faces  = 1646
    total area   = 0.101736




surfaceFieldValue massFlowAtFilter_80:
    total faces  = 1661
    total area   = 0.101698




surfaceFieldValue massFlowAtFilter_81:
    total faces  = 1731
    total area   = 0.101654




surfaceFieldValue massFlowAtFilter_82:
    total faces  = 1626
    total area   = 0.101687




surfaceFieldValue massFlowAtFilter_83:
    total faces  = 1684
    total area   = 0.101722




surfaceFieldValue massFlowAtFilter_84:
    total faces  = 1446
    total area   = 0.101612




surfaceFieldValue massFlowAtFilter_85:
    total faces  = 1624
    total area   = 0.101702




surfaceFieldValue massFlowAtFilter_86:
    total faces  = 1686
    total area   = 0.101683




surfaceFieldValue massFlowAtFilter_87:
    total faces  = 1651
    total area   = 0.101698




surfaceFieldValue massFlowAtFilter_88:
    total faces  = 1446
    total area   = 0.101615




surfaceFieldValue massFlowAtFilter_89:
    total faces  = 1698
    total area   = 0.101715




surfaceFieldValue massFlowAtFilter_90:
    total faces  = 1742
    total area   = 0.101702




surfaceFieldValue massFlowAtFilter_91:
    total faces  = 1731
    total area   = 0.101659




surfaceFieldValue massFlowAtFilter_92:
    total faces  = 1729
    total area   = 0.101677




surfaceFieldValue massFlowAtFilter_93:
    total faces  = 1610
    total area   = 0.101714




surfaceFieldValue massFlowAtFilter_94:
    total faces  = 1741
    total area   = 0.101701




surfaceFieldValue massFlowAtFilter_95:
    total faces  = 1663
    total area   = 0.101675




surfaceFieldValue massFlowAtFilter_96:
    total faces  = 1610
    total area   = 0.101721




surfaceFieldValue massFlowAtFilter_97:
    total faces  = 1529
    total area   = 0.101662




surfaceFieldValue massFlowAtFilter_98:
    total faces  = 1737
    total area   = 0.101789




surfaceFieldValue massFlowAtFilter_99:
    total faces  = 1658
    total area   = 0.101721


Time = 1

DILUPBiCG:  Solving for Ux, Initial residual = 1, Final residual = 4.67936e-06, No Iterations 5
DILUPBiCG:  Solving for Uy, Initial residual = 1, Final residual = 3.4582e-06, No Iterations 7
DILUPBiCG:  Solving for Uz, Initial residual = 1, Final residual = 2.9832e-06, No Iterations 6
DICPCG:  Solving for p, Initial residual = 1, Final residual = 0.0991912, No Iterations 316
DICPCG:  Solving for p, Initial residual = 0.00334579, Final residual = 0.000253485, No Iterations 4
DICPCG:  Solving for p, Initial residual = 0.000479823, Final residual = 4.74559e-05, No Iterations 36
time step continuity errors : sum local = 0.0548625, global = -0.00033701, cumulative = -0.00033701
DILUPBiCG:  Solving for epsilon, Initial residual = 0.0482077, Final residual = 1.50198e-06, No Iterations 4
DILUPBiCG:  Solving for k, Initial residual = 1, Final residual = 9.70858e-07, No Iterations 6
ExecutionTime = 6.08 s  ClockTime = 6 s

Time = 2

DILUPBiCG:  Solving for Ux, Initial residual = 0.000117522, Final residual = 3.20018e-06, No Iterations 2
DILUPBiCG:  Solving for Uy, Initial residual = 5.33287e-05, Final residual = 5.24298e-06, No Iterations 2
DILUPBiCG:  Solving for Uz, Initial residual = 0.000111079, Final residual = 2.26638e-06, No Iterations 2
DICPCG:  Solving for p, Initial residual = 0.0101012, Final residual = 0.00100948, No Iterations 115
DICPCG:  Solving for p, Initial residual = 0.00565163, Final residual = 0.000547895, No Iterations 6
DICPCG:  Solving for p, Initial residual = 0.000864156, Final residual = 8.60227e-05, No Iterations 83
time step continuity errors : sum local = 0.0254396, global = 0.00385375, cumulative = 0.00351674
DILUPBiCG:  Solving for epsilon, Initial residual = 0.0141909, Final residual = 8.72348e-07, No Iterations 4
DILUPBiCG:  Solving for k, Initial residual = 0.520091, Final residual = 6.70332e-07, No Iterations 6
ExecutionTime = 8.78 s  ClockTime = 8 s

Time = 3

DILUPBiCG:  Solving for Ux, Initial residual = 1.85544e-05, Final residual = 3.25695e-06, No Iterations 1
DILUPBiCG:  Solving for Uy, Initial residual = 1.3383e-05, Final residual = 3.06075e-06, No Iterations 1
DILUPBiCG:  Solving for Uz, Initial residual = 2.78369e-05, Final residual = 8.42255e-06, No Iterations 1
DICPCG:  Solving for p, Initial residual = 0.0161927, Final residual = 0.00160172, No Iterations 298
DICPCG:  Solving for p, Initial residual = 0.00709254, Final residual = 0.000624963, No Iterations 4
DICPCG:  Solving for p, Initial residual = 0.00101638, Final residual = 9.9909e-05, No Iterations 50
time step continuity errors : sum local = 0.0556284, global = 0.000300353, cumulative = 0.00381709
DILUPBiCG:  Solving for epsilon, Initial residual = 0.0198885, Final residual = 1.51506e-06, No Iterations 4
DILUPBiCG:  Solving for k, Initial residual = 0.27528, Final residual = 1.58702e-07, No Iterations 6
ExecutionTime = 12.41 s  ClockTime = 12 s

Time = 4

DILUPBiCG:  Solving for Ux, Initial residual = 5.18726e-06, Final residual = 5.18726e-06, No Iterations 0
DILUPBiCG:  Solving for Uy, Initial residual = 1.92682e-06, Final residual = 1.92682e-06, No Iterations 0
DILUPBiCG:  Solving for Uz, Initial residual = 6.58766e-06, Final residual = 6.58766e-06, No Iterations 0
DICPCG:  Solving for p, Initial residual = 0.226167, Final residual = 0.0211128, No Iterations 306
DICPCG:  Solving for p, Initial residual = 0.00494469, Final residual = 0.000395443, No Iterations 4
DICPCG:  Solving for p, Initial residual = 0.000670292, Final residual = 6.59293e-05, No Iterations 46
time step continuity errors : sum local = 0.0357247, global = 0.000208128, cumulative = 0.00402522
DILUPBiCG:  Solving for epsilon, Initial residual = 0.0203016, Final residual = 6.61934e-06, No Iterations 3
DILUPBiCG:  Solving for k, Initial residual = 0.16423, Final residual = 9.15173e-07, No Iterations 5
ExecutionTime = 15.94 s  ClockTime = 16 s

Time = 5

DILUPBiCG:  Solving for Ux, Initial residual = 1.45741e-05, Final residual = 2.96948e-06, No Iterations 1
DILUPBiCG:  Solving for Uy, Initial residual = 8.09893e-06, Final residual = 8.09893e-06, No Iterations 0
DILUPBiCG:  Solving for Uz, Initial residual = 1.35561e-05, Final residual = 3.32599e-06, No Iterations 1
DICPCG:  Solving for p, Initial residual = 0.0210177, Final residual = 0.00203464, No Iterations 48
DICPCG:  Solving for p, Initial residual = 0.00668155, Final residual = 0.00062156, No Iterations 269
DICPCG:  Solving for p, Initial residual = 0.00193802, Final residual = 0.000190473, No Iterations 4
time step continuity errors : sum local = 0.0689301, global = 0.000353949, cumulative = 0.00437917
DILUPBiCG:  Solving for epsilon, Initial residual = 0.0184903, Final residual = 6.26735e-06, No Iterations 3
DILUPBiCG:  Solving for k, Initial residual = 0.116402, Final residual = 4.95835e-07, No Iterations 5
ExecutionTime = 19.27 s  ClockTime = 19 s

Time = 6

DILUPBiCG:  Solving for Ux, Initial residual = 2.00957e-05, Final residual = 4.68909e-06, No Iterations 1
DILUPBiCG:  Solving for Uy, Initial residual = 1.21151e-05, Final residual = 2.82487e-06, No Iterations 1
DILUPBiCG:  Solving for Uz, Initial residual = 1.56231e-05, Final residual = 4.84856e-06, No Iterations 1
DICPCG:  Solving for p, Initial residual = 0.0233581, Final residual = 0.00222539, No Iterations 296
DICPCG:  Solving for p, Initial residual = 0.00806909, Final residual = 0.000800913, No Iterations 5
DICPCG:  Solving for p, Initial residual = 0.00120332, Final residual = 0.00011959, No Iterations 58
time step continuity errors : sum local = 0.046638, global = -0.000255352, cumulative = 0.00412382
DILUPBiCG:  Solving for epsilon, Initial residual = 0.017277, Final residual = 5.4774e-06, No Iterations 3
DILUPBiCG:  Solving for k, Initial residual = 0.096346, Final residual = 8.53684e-07, No Iterations 5
ExecutionTime = 22.89 s  ClockTime = 23 s

Time = 7

DILUPBiCG:  Solving for Ux, Initial residual = 1.40974e-05, Final residual = 5.83667e-07, No Iterations 2
DILUPBiCG:  Solving for Uy, Initial residual = 4.0055e-06, Final residual = 4.0055e-06, No Iterations 0
DILUPBiCG:  Solving for Uz, Initial residual = 7.82029e-06, Final residual = 7.82029e-06, No Iterations 0
DICPCG:  Solving for p, Initial residual = 0.0675817, Final residual = 0.00667244, No Iterations 295
DICPCG:  Solving for p, Initial residual = 0.00478248, Final residual = 0.000460906, No Iterations 5
DICPCG:  Solving for p, Initial residual = 0.000694927, Final residual = 6.91267e-05, No Iterations 49
time step continuity errors : sum local = 0.0297711, global = -0.000200498, cumulative = 0.00392332
DILUPBiCG:  Solving for epsilon, Initial residual = 0.0168454, Final residual = 5.53993e-06, No Iterations 3
DILUPBiCG:  Solving for k, Initial residual = 0.0790142, Final residual = 7.63062e-07, No Iterations 5
ExecutionTime = 26.38 s  ClockTime = 26 s

Time = 8

DILUPBiCG:  Solving for Ux, Initial residual = 1.71427e-05, Final residual = 3.51076e-06, No Iterations 1
DILUPBiCG:  Solving for Uy, Initial residual = 9.22247e-06, Final residual = 9.22247e-06, No Iterations 0
DILUPBiCG:  Solving for Uz, Initial residual = 1.55878e-05, Final residual = 3.84748e-06, No Iterations 1
DICPCG:  Solving for p, Initial residual = 0.0252327, Final residual = 0.00247609, No Iterations 108
DICPCG:  Solving for p, Initial residual = 0.00950182, Final residual = 0.000900201, No Iterations 269
DICPCG:  Solving for p, Initial residual = 0.00180492, Final residual = 0.000176893, No Iterations 6
time step continuity errors : sum local = 0.0574137, global = -0.000209926, cumulative = 0.00371339
DILUPBiCG:  Solving for epsilon, Initial residual = 0.0155921, Final residual = 9.73068e-07, No Iterations 4
DILUPBiCG:  Solving for k, Initial residual = 0.0666473, Final residual = 5.81793e-08, No Iterations 6
ExecutionTime = 30.2 s  ClockTime = 30 s

Time = 9

DILUPBiCG:  Solving for Ux, Initial residual = 7.39702e-06, Final residual = 7.39702e-06, No Iterations 0
DILUPBiCG:  Solving for Uy, Initial residual = 1.20361e-05, Final residual = 2.80603e-06, No Iterations 1
DILUPBiCG:  Solving for Uz, Initial residual = 8.30131e-06, Final residual = 8.30131e-06, No Iterations 0
DICPCG:  Solving for p, Initial residual = 0.020497, Final residual = 0.00203014, No Iterations 277
DICPCG:  Solving for p, Initial residual = 0.00755918, Final residual = 0.000755372, No Iterations 14
DICPCG:  Solving for p, Initial residual = 0.00128872, Final residual = 0.000128076, No Iterations 42
time step continuity errors : sum local = 0.0279071, global = 0.000324843, cumulative = 0.00403823
DILUPBiCG:  Solving for epsilon, Initial residual = 0.015713, Final residual = 1.18618e-06, No Iterations 4
DILUPBiCG:  Solving for k, Initial residual = 0.0597517, Final residual = 1.02823e-07, No Iterations 6
ExecutionTime = 33.62 s  ClockTime = 33 s

Time = 10

DILUPBiCG:  Solving for Ux, Initial residual = 3.95017e-06, Final residual = 3.95017e-06, No Iterations 0
DILUPBiCG:  Solving for Uy, Initial residual = 2.45712e-06, Final residual = 2.45712e-06, No Iterations 0
DILUPBiCG:  Solving for Uz, Initial residual = 4.75608e-06, Final residual = 4.75608e-06, No Iterations 0
DICPCG:  Solving for p, Initial residual = 0.03867, Final residual = 0.00380431, No Iterations 287
DICPCG:  Solving for p, Initial residual = 0.00495657, Final residual = 0.000482926, No Iterations 5
DICPCG:  Solving for p, Initial residual = 0.000716827, Final residual = 6.97434e-05, No Iterations 49
time step continuity errors : sum local = 0.0183509, global = 0.000162717, cumulative = 0.00420095
DILUPBiCG:  Solving for epsilon, Initial residual = 0.0135957, Final residual = 7.86187e-06, No Iterations 3
DILUPBiCG:  Solving for k, Initial residual = 0.0533217, Final residual = 7.26536e-07, No Iterations 5
ExecutionTime = 37.03 s  ClockTime = 37 s

Time = 11

DILUPBiCG:  Solving for Ux, Initial residual = 5.24902e-06, Final residual = 5.24902e-06, No Iterations 0
DILUPBiCG:  Solving for Uy, Initial residual = 2.53797e-06, Final residual = 2.53797e-06, No Iterations 0
DILUPBiCG:  Solving for Uz, Initial residual = 4.77654e-06, Final residual = 4.77654e-06, No Iterations 0
DICPCG:  Solving for p, Initial residual = 0.029157, Final residual = 0.00273028, No Iterations 293
DICPCG:  Solving for p, Initial residual = 0.00341438, Final residual = 0.000322558, No Iterations 5
DICPCG:  Solving for p, Initial residual = 0.00048906, Final residual = 4.82847e-05, No Iterations 54
time step continuity errors : sum local = 0.0105025, global = 9.16731e-05, cumulative = 0.00429262
DILUPBiCG:  Solving for epsilon, Initial residual = 0.012133, Final residual = 8.00805e-07, No Iterations 4
DILUPBiCG:  Solving for k, Initial residual = 0.0489258, Final residual = 3.02593e-07, No Iterations 5
ExecutionTime = 40.51 s  ClockTime = 40 s

Time = 12

DILUPBiCG:  Solving for Ux, Initial residual = 6.82742e-06, Final residual = 6.82742e-06, No Iterations 0
DILUPBiCG:  Solving for Uy, Initial residual = 5.39168e-06, Final residual = 5.39168e-06, No Iterations 0
DILUPBiCG:  Solving for Uz, Initial residual = 5.69543e-06, Final residual = 5.69543e-06, No Iterations 0
DICPCG:  Solving for p, Initial residual = 0.0108579, Final residual = 0.00106277, No Iterations 44
DICPCG:  Solving for p, Initial residual = 0.00249799, Final residual = 0.000243876, No Iterations 275
DICPCG:  Solving for p, Initial residual = 0.000994217, Final residual = 9.58716e-05, No Iterations 12
time step continuity errors : sum local = 0.0115213, global = -5.71819e-05, cumulative = 0.00423544
DILUPBiCG:  Solving for epsilon, Initial residual = 0.0111877, Final residual = 6.57889e-06, No Iterations 3
DILUPBiCG:  Solving for k, Initial residual = 0.0459878, Final residual = 1.94928e-07, No Iterations 5
ExecutionTime = 43.84 s  ClockTime = 44 s

Time = 13

DILUPBiCG:  Solving for Ux, Initial residual = 6.67171e-06, Final residual = 6.67171e-06, No Iterations 0
DILUPBiCG:  Solving for Uy, Initial residual = 6.29351e-06, Final residual = 6.29351e-06, No Iterations 0
DILUPBiCG:  Solving for Uz, Initial residual = 5.85118e-06, Final residual = 5.85118e-06, No Iterations 0
DICPCG:  Solving for p, Initial residual = 0.0116905, Final residual = 0.00110579, No Iterations 100
DICPCG:  Solving for p, Initial residual = 0.00388754, Final residual = 0.000383499, No Iterations 266
DICPCG:  Solving for p, Initial residual = 0.0158857, Final residual = 0.00150319, No Iterations 7
time step continuity errors : sum local = 0.0227868, global = -0.000204062, cumulative = 0.00403138
DILUPBiCG:  Solving for epsilon, Initial residual = 0.0106234, Final residual = 4.745e-06, No Iterations 3
DILUPBiCG:  Solving for k, Initial residual = 0.0435404, Final residual = 1.96023e-07, No Iterations 5
ExecutionTime = 47.46 s  ClockTime = 47 s

Time = 14

DILUPBiCG:  Solving for Ux, Initial residual = 5.03695e-06, Final residual = 5.03695e-06, No Iterations 0
DILUPBiCG:  Solving for Uy, Initial residual = 5.07098e-06, Final residual = 5.07098e-06, No Iterations 0
DILUPBiCG:  Solving for Uz, Initial residual = 4.75179e-06, Final residual = 4.75179e-06, No Iterations 0
DICPCG:  Solving for p, Initial residual = 0.0151856, Final residual = 0.00146069, No Iterations 282
DICPCG:  Solving for p, Initial residual = 0.00894398, Final residual = 0.000883412, No Iterations 15
DICPCG:  Solving for p, Initial residual = 0.00149345, Final residual = 0.000139926, No Iterations 51
time step continuity errors : sum local = 0.00962111, global = -4.93351e-05, cumulative = 0.00398205
DILUPBiCG:  Solving for epsilon, Initial residual = 0.0103738, Final residual = 7.15624e-06, No Iterations 3
DILUPBiCG:  Solving for k, Initial residual = 0.0411887, Final residual = 2.31961e-07, No Iterations 5
ExecutionTime = 50.91 s  ClockTime = 51 s

Time = 15

DILUPBiCG:  Solving for Ux, Initial residual = 3.22402e-06, Final residual = 3.22402e-06, No Iterations 0
DILUPBiCG:  Solving for Uy, Initial residual = 2.48307e-06, Final residual = 2.48307e-06, No Iterations 0
DILUPBiCG:  Solving for Uz, Initial residual = 3.26117e-06, Final residual = 3.26117e-06, No Iterations 0
DICPCG:  Solving for p, Initial residual = 0.0261525, Final residual = 0.00257998, No Iterations 285
DICPCG:  Solving for p, Initial residual = 0.00528597, Final residual = 0.000490683, No Iterations 5
DICPCG:  Solving for p, Initial residual = 0.000736893, Final residual = 7.27981e-05, No Iterations 60
time step continuity errors : sum local = 0.0076811, global = -8.39065e-05, cumulative = 0.00389814
DILUPBiCG:  Solving for epsilon, Initial residual = 0.0102934, Final residual = 5.53304e-06, No Iterations 3
DILUPBiCG:  Solving for k, Initial residual = 0.0388513, Final residual = 3.13484e-07, No Iterations 5
ExecutionTime = 54.4 s  ClockTime = 54 s

Time = 16

DILUPBiCG:  Solving for Ux, Initial residual = 2.65308e-06, Final residual = 2.65308e-06, No Iterations 0
DILUPBiCG:  Solving for Uy, Initial residual = 7.32686e-07, Final residual = 7.32686e-07, No Iterations 0
DILUPBiCG:  Solving for Uz, Initial residual = 2.67752e-06, Final residual = 2.67752e-06, No Iterations 0
DICPCG:  Solving for p, Initial residual = 0.065289, Final residual = 0.00640836, No Iterations 291
DICPCG:  Solving for p, Initial residual = 0.00374411, Final residual = 0.000353791, No Iterations 5
DICPCG:  Solving for p, Initial residual = 0.000534097, Final residual = 5.21525e-05, No Iterations 58
time step continuity errors : sum local = 0.00528835, global = -5.90463e-05, cumulative = 0.00383909
DILUPBiCG:  Solving for epsilon, Initial residual = 0.0100195, Final residual = 5.43446e-06, No Iterations 3
DILUPBiCG:  Solving for k, Initial residual = 0.0365456, Final residual = 4.37902e-07, No Iterations 5
ExecutionTime = 57.89 s  ClockTime = 58 s

Time = 17

DILUPBiCG:  Solving for Ux, Initial residual = 3.05971e-06, Final residual = 3.05971e-06, No Iterations 0
DILUPBiCG:  Solving for Uy, Initial residual = 2.15805e-06, Final residual = 2.15805e-06, No Iterations 0
DILUPBiCG:  Solving for Uz, Initial residual = 2.93233e-06, Final residual = 2.93233e-06, No Iterations 0
DICPCG:  Solving for p, Initial residual = 0.0120091, Final residual = 0.00114439, No Iterations 106
DICPCG:  Solving for p, Initial residual = 0.00355389, Final residual = 0.000352639, No Iterations 266
DICPCG:  Solving for p, Initial residual = 0.00125863, Final residual = 0.000123751, No Iterations 5
time step continuity errors : sum local = 0.0086495, global = -2.96628e-05, cumulative = 0.00380943
DILUPBiCG:  Solving for epsilon, Initial residual = 0.00961121, Final residual = 5.24572e-06, No Iterations 3
DILUPBiCG:  Solving for k, Initial residual = 0.0343727, Final residual = 5.14556e-07, No Iterations 5
ExecutionTime = 61.57 s  ClockTime = 61 s

Time = 18

DILUPBiCG:  Solving for Ux, Initial residual = 3.01646e-06, Final residual = 3.01646e-06, No Iterations 0
DILUPBiCG:  Solving for Uy, Initial residual = 2.60466e-06, Final residual = 2.60466e-06, No Iterations 0
DILUPBiCG:  Solving for Uz, Initial residual = 3.07737e-06, Final residual = 3.07737e-06, No Iterations 0
DICPCG:  Solving for p, Initial residual = 0.00973114, Final residual = 0.000933092, No Iterations 92
DICPCG:  Solving for p, Initial residual = 0.00256672, Final residual = 0.000242239, No Iterations 224
DICPCG:  Solving for p, Initial residual = 0.00201647, Final residual = 0.000199212, No Iterations 8
time step continuity errors : sum local = 0.00572339, global = 0.000160925, cumulative = 0.00397036
DILUPBiCG:  Solving for epsilon, Initial residual = 0.00918459, Final residual = 5.0475e-06, No Iterations 3
DILUPBiCG:  Solving for k, Initial residual = 0.0324554, Final residual = 4.90241e-07, No Iterations 5
ExecutionTime = 64.84 s  ClockTime = 65 s

Time = 19

DILUPBiCG:  Solving for Ux, Initial residual = 2.5386e-06, Final residual = 2.5386e-06, No Iterations 0
DILUPBiCG:  Solving for Uy, Initial residual = 2.1827e-06, Final residual = 2.1827e-06, No Iterations 0
DILUPBiCG:  Solving for Uz, Initial residual = 2.86704e-06, Final residual = 2.86704e-06, No Iterations 0
DICPCG:  Solving for p, Initial residual = 0.0114052, Final residual = 0.00113167, No Iterations 284
DICPCG:  Solving for p, Initial residual = 0.0196792, Final residual = 0.00189, No Iterations 20
DICPCG:  Solving for p, Initial residual = 0.00350185, Final residual = 0.000345832, No Iterations 47
time step continuity errors : sum local = 0.00371127, global = -9.91434e-06, cumulative = 0.00396044
DILUPBiCG:  Solving for epsilon, Initial residual = 0.0088178, Final residual = 5.12517e-06, No Iterations 3
DILUPBiCG:  Solving for k, Initial residual = 0.03084, Final residual = 3.13132e-08, No Iterations 6
ExecutionTime = 68.34 s  ClockTime = 68 s

Time = 20

DILUPBiCG:  Solving for Ux, Initial residual = 2.03101e-06, Final residual = 2.03101e-06, No Iterations 0
DILUPBiCG:  Solving for Uy, Initial residual = 1.3333e-06, Final residual = 1.3333e-06, No Iterations 0
DILUPBiCG:  Solving for Uz, Initial residual = 2.51387e-06, Final residual = 2.51387e-06, No Iterations 0
DICPCG:  Solving for p, Initial residual = 0.0151593, Final residual = 0.00147571, No Iterations 286
DICPCG:  Solving for p, Initial residual = 0.00719577, Final residual = 0.000715623, No Iterations 5
DICPCG:  Solving for p, Initial residual = 0.00105015, Final residual = 9.79388e-05, No Iterations 59
time step continuity errors : sum local = 0.00310789, global = 3.79257e-05, cumulative = 0.00399837
DILUPBiCG:  Solving for epsilon, Initial residual = 0.00850634, Final residual = 5.52516e-06, No Iterations 3
DILUPBiCG:  Solving for k, Initial residual = 0.0295019, Final residual = 2.33597e-08, No Iterations 6
ExecutionTime = 71.84 s  ClockTime = 72 s

forces porousforces write:
    sum of forces:
        pressure : (0 0 0)
        viscous  : (0 0 0)
        porous   : (85289.1 -9.377e-14 72580.8)
    sum of moments:
        pressure : (0 0 0)
        viscous  : (0 0 0)
        porous   : (65317.3 6871.23 -75794)

volFieldValue volFieldValue_0 write:
    volIntegrate(cz_solid_0) of U = (1.66754e-09 -4.38176e-09 -3.9746e-09)

surfaceFieldValue massFlowAtFilter_0 write:
    sum(fz_solid_0) of phi = 6.71005e-05

volFieldValue volFieldValue_1 write:
    volIntegrate(cz_solid_1) of U = (3.56533e-10 -3.79703e-09 -3.61393e-09)

surfaceFieldValue massFlowAtFilter_1 write:
    sum(fz_solid_1) of phi = 3.61805e-05

volFieldValue volFieldValue_2 write:
    volIntegrate(cz_solid_2) of U = (-6.88106e-10 -3.75816e-09 -3.03691e-09)

surfaceFieldValue massFlowAtFilter_2 write:
    sum(fz_solid_2) of phi = -5.63575e-05

volFieldValue volFieldValue_3 write:
    volIntegrate(cz_solid_3) of U = (-1.49321e-09 -3.5179e-09 -2.37422e-09)

surfaceFieldValue massFlowAtFilter_3 write:
    sum(fz_solid_3) of phi = -2.573e-06

volFieldValue volFieldValue_4 write:
    volIntegrate(cz_solid_4) of U = (-2.24695e-09 -3.19435e-09 -1.56564e-09)

surfaceFieldValue massFlowAtFilter_4 write:
    sum(fz_solid_4) of phi = 6.40824e-06

volFieldValue volFieldValue_5 write:
    volIntegrate(cz_solid_5) of U = (-2.85583e-09 -3.12903e-09 -7.83638e-10)

surfaceFieldValue massFlowAtFilter_5 write:
    sum(fz_solid_5) of phi = -8.87116e-05

volFieldValue volFieldValue_6 write:
    volIntegrate(cz_solid_6) of U = (-3.40493e-09 -3.33636e-09 2.09821e-10)

surfaceFieldValue massFlowAtFilter_6 write:
    sum(fz_solid_6) of phi = -5.85639e-05

volFieldValue volFieldValue_7 write:
    volIntegrate(cz_solid_7) of U = (-3.68226e-09 -3.49486e-09 1.47583e-09)

surfaceFieldValue massFlowAtFilter_7 write:
    sum(fz_solid_7) of phi = 3.09839e-05

volFieldValue volFieldValue_8 write:
    volIntegrate(cz_solid_8) of U = (-3.55822e-09 -3.78536e-09 2.86725e-09)

surfaceFieldValue massFlowAtFilter_8 write:
    sum(fz_solid_8) of phi = -1.19018e-05

volFieldValue volFieldValue_9 write:
    volIntegrate(cz_solid_9) of U = (-2.87302e-09 -4.2085e-09 4.38135e-09)

surfaceFieldValue massFlowAtFilter_9 write:
    sum(fz_solid_9) of phi = 4.1471e-06

volFieldValue volFieldValue_10 write:
    volIntegrate(cz_solid_10) of U = (-1.56711e-09 -4.44705e-09 5.67509e-09)

surfaceFieldValue massFlowAtFilter_10 write:
    sum(fz_solid_10) of phi = -6.00298e-05

volFieldValue volFieldValue_11 write:
    volIntegrate(cz_solid_11) of U = (1.18074e-10 -4.75319e-09 6.56538e-09)

surfaceFieldValue massFlowAtFilter_11 write:
    sum(fz_solid_11) of phi = 9.15997e-06

volFieldValue volFieldValue_12 write:
    volIntegrate(cz_solid_12) of U = (2.3525e-09 -5.13787e-09 6.83444e-09)

surfaceFieldValue massFlowAtFilter_12 write:
    sum(fz_solid_12) of phi = 1.74548e-05

volFieldValue volFieldValue_13 write:
    volIntegrate(cz_solid_13) of U = (4.67659e-09 -5.75853e-09 6.26663e-09)

surfaceFieldValue massFlowAtFilter_13 write:
    sum(fz_solid_13) of phi = 8.70075e-05

volFieldValue volFieldValue_14 write:
    volIntegrate(cz_solid_14) of U = (6.61538e-09 -6.21316e-09 4.84258e-09)

surfaceFieldValue massFlowAtFilter_14 write:
    sum(fz_solid_14) of phi = 0.000139442

volFieldValue volFieldValue_15 write:
    volIntegrate(cz_solid_15) of U = (7.76172e-09 -6.51902e-09 2.50536e-09)

surfaceFieldValue massFlowAtFilter_15 write:
    sum(fz_solid_15) of phi = 0.00012875

volFieldValue volFieldValue_16 write:
    volIntegrate(cz_solid_16) of U = (7.66704e-09 -6.25022e-09 1.96529e-11)

surfaceFieldValue massFlowAtFilter_16 write:
    sum(fz_solid_16) of phi = 5.83519e-05

volFieldValue volFieldValue_17 write:
    volIntegrate(cz_solid_17) of U = (6.57001e-09 -5.91901e-09 -2.03088e-09)

surfaceFieldValue massFlowAtFilter_17 write:
    sum(fz_solid_17) of phi = -2.44365e-05

volFieldValue volFieldValue_18 write:
    volIntegrate(cz_solid_18) of U = (5.00218e-09 -5.21393e-09 -3.34669e-09)

surfaceFieldValue massFlowAtFilter_18 write:
    sum(fz_solid_18) of phi = 9.46577e-05

volFieldValue volFieldValue_19 write:
    volIntegrate(cz_solid_19) of U = (3.25201e-09 -4.69532e-09 -3.89656e-09)

surfaceFieldValue massFlowAtFilter_19 write:
    sum(fz_solid_19) of phi = 1.61822e-05

volFieldValue volFieldValue_20 write:
    volIntegrate(cz_solid_20) of U = (1.3853e-09 -7.51809e-09 -2.98985e-09)

surfaceFieldValue massFlowAtFilter_20 write:
    sum(fz_solid_20) of phi = 2.3139e-05

volFieldValue volFieldValue_21 write:
    volIntegrate(cz_solid_21) of U = (3.20912e-10 -6.83795e-09 -2.73123e-09)

surfaceFieldValue massFlowAtFilter_21 write:
    sum(fz_solid_21) of phi = 2.5763e-05

volFieldValue volFieldValue_22 write:
    volIntegrate(cz_solid_22) of U = (-5.1174e-10 -6.62087e-09 -2.3036e-09)

surfaceFieldValue massFlowAtFilter_22 write:
    sum(fz_solid_22) of phi = -4.7952e-05

volFieldValue volFieldValue_23 write:
    volIntegrate(cz_solid_23) of U = (-1.14557e-09 -6.4387e-09 -1.78562e-09)

surfaceFieldValue massFlowAtFilter_23 write:
    sum(fz_solid_23) of phi = 1.77585e-05

volFieldValue volFieldValue_24 write:
    volIntegrate(cz_solid_24) of U = (-1.7368e-09 -5.99271e-09 -1.14013e-09)

surfaceFieldValue massFlowAtFilter_24 write:
    sum(fz_solid_24) of phi = 1.08771e-05

volFieldValue volFieldValue_25 write:
    volIntegrate(cz_solid_25) of U = (-2.21024e-09 -5.81841e-09 -5.12182e-10)

surfaceFieldValue massFlowAtFilter_25 write:
    sum(fz_solid_25) of phi = 6.85074e-07

volFieldValue volFieldValue_26 write:
    volIntegrate(cz_solid_26) of U = (-2.65153e-09 -6.22718e-09 2.63254e-10)

surfaceFieldValue massFlowAtFilter_26 write:
    sum(fz_solid_26) of phi = -3.77398e-06

volFieldValue volFieldValue_27 write:
    volIntegrate(cz_solid_27) of U = (-2.84764e-09 -6.26127e-09 1.27299e-09)

surfaceFieldValue massFlowAtFilter_27 write:
    sum(fz_solid_27) of phi = 3.43433e-05

volFieldValue volFieldValue_28 write:
    volIntegrate(cz_solid_28) of U = (-2.71993e-09 -6.69658e-09 2.3799e-09)

surfaceFieldValue massFlowAtFilter_28 write:
    sum(fz_solid_28) of phi = 4.50507e-05

volFieldValue volFieldValue_29 write:
    volIntegrate(cz_solid_29) of U = (-2.09993e-09 -7.27267e-09 3.57298e-09)

surfaceFieldValue massFlowAtFilter_29 write:
    sum(fz_solid_29) of phi = 8.74908e-06

volFieldValue volFieldValue_30 write:
    volIntegrate(cz_solid_30) of U = (-1.04485e-09 -8.12226e-09 4.54977e-09)

surfaceFieldValue massFlowAtFilter_30 write:
    sum(fz_solid_30) of phi = -1.49178e-05

volFieldValue volFieldValue_31 write:
    volIntegrate(cz_solid_31) of U = (3.39199e-10 -9.51275e-09 5.19794e-09)

surfaceFieldValue massFlowAtFilter_31 write:
    sum(fz_solid_31) of phi = -3.13601e-05

volFieldValue volFieldValue_32 write:
    volIntegrate(cz_solid_32) of U = (2.09268e-09 -1.05491e-08 5.37096e-09)

surfaceFieldValue massFlowAtFilter_32 write:
    sum(fz_solid_32) of phi = -1.34464e-05

volFieldValue volFieldValue_33 write:
    volIntegrate(cz_solid_33) of U = (3.93111e-09 -1.18092e-08 4.97332e-09)

surfaceFieldValue massFlowAtFilter_33 write:
    sum(fz_solid_33) of phi = 6.98686e-05

volFieldValue volFieldValue_34 write:
    volIntegrate(cz_solid_34) of U = (5.48171e-09 -1.30713e-08 4.00679e-09)

surfaceFieldValue massFlowAtFilter_34 write:
    sum(fz_solid_34) of phi = 4.2884e-05

volFieldValue volFieldValue_35 write:
    volIntegrate(cz_solid_35) of U = (6.43518e-09 -1.32279e-08 2.27589e-09)

surfaceFieldValue massFlowAtFilter_35 write:
    sum(fz_solid_35) of phi = 5.1909e-05

volFieldValue volFieldValue_36 write:
    volIntegrate(cz_solid_36) of U = (6.37727e-09 -1.22731e-08 3.88844e-10)

surfaceFieldValue massFlowAtFilter_36 write:
    sum(fz_solid_36) of phi = 3.64548e-05

volFieldValue volFieldValue_37 write:
    volIntegrate(cz_solid_37) of U = (5.48065e-09 -1.06972e-08 -1.27695e-09)

surfaceFieldValue massFlowAtFilter_37 write:
    sum(fz_solid_37) of phi = 1.03042e-05

volFieldValue volFieldValue_38 write:
    volIntegrate(cz_solid_38) of U = (4.1913e-09 -9.60042e-09 -2.40461e-09)

surfaceFieldValue massFlowAtFilter_38 write:
    sum(fz_solid_38) of phi = -2.60971e-05

volFieldValue volFieldValue_39 write:
    volIntegrate(cz_solid_39) of U = (2.69768e-09 -8.13817e-09 -2.89365e-09)

surfaceFieldValue massFlowAtFilter_39 write:
    sum(fz_solid_39) of phi = 2.76908e-05

volFieldValue volFieldValue_40 write:
    volIntegrate(cz_solid_40) of U = (8.00017e-10 -6.92679e-09 -1.2504e-09)

surfaceFieldValue massFlowAtFilter_40 write:
    sum(fz_solid_40) of phi = 2.85346e-05

volFieldValue volFieldValue_41 write:
    volIntegrate(cz_solid_41) of U = (2.42005e-10 -6.28016e-09 -1.19917e-09)

surfaceFieldValue massFlowAtFilter_41 write:
    sum(fz_solid_41) of phi = 1.24865e-05

volFieldValue volFieldValue_42 write:
    volIntegrate(cz_solid_42) of U = (-2.04694e-10 -6.17019e-09 -1.01895e-09)

surfaceFieldValue massFlowAtFilter_42 write:
    sum(fz_solid_42) of phi = -4.28243e-06

volFieldValue volFieldValue_43 write:
    volIntegrate(cz_solid_43) of U = (-5.64411e-10 -5.90195e-09 -7.55528e-10)

surfaceFieldValue massFlowAtFilter_43 write:
    sum(fz_solid_43) of phi = 1.10845e-05

volFieldValue volFieldValue_44 write:
    volIntegrate(cz_solid_44) of U = (-8.94292e-10 -5.4522e-09 -4.2851e-10)

surfaceFieldValue massFlowAtFilter_44 write:
    sum(fz_solid_44) of phi = 1.98024e-06

volFieldValue volFieldValue_45 write:
    volIntegrate(cz_solid_45) of U = (-1.20093e-09 -5.37586e-09 -7.86163e-11)

surfaceFieldValue massFlowAtFilter_45 write:
    sum(fz_solid_45) of phi = 7.61048e-07

volFieldValue volFieldValue_46 write:
    volIntegrate(cz_solid_46) of U = (-1.49964e-09 -5.60329e-09 3.56155e-10)

surfaceFieldValue massFlowAtFilter_46 write:
    sum(fz_solid_46) of phi = -1.93466e-05

volFieldValue volFieldValue_47 write:
    volIntegrate(cz_solid_47) of U = (-1.63683e-09 -5.64234e-09 1.00628e-09)

surfaceFieldValue massFlowAtFilter_47 write:
    sum(fz_solid_47) of phi = 3.76905e-05

volFieldValue volFieldValue_48 write:
    volIntegrate(cz_solid_48) of U = (-1.52869e-09 -5.86118e-09 1.72604e-09)

surfaceFieldValue massFlowAtFilter_48 write:
    sum(fz_solid_48) of phi = -7.33253e-06

volFieldValue volFieldValue_49 write:
    volIntegrate(cz_solid_49) of U = (-1.06824e-09 -6.29696e-09 2.50681e-09)

surfaceFieldValue massFlowAtFilter_49 write:
    sum(fz_solid_49) of phi = -1.65904e-05

volFieldValue volFieldValue_50 write:
    volIntegrate(cz_solid_50) of U = (-2.88549e-10 -6.96584e-09 3.16166e-09)

surfaceFieldValue massFlowAtFilter_50 write:
    sum(fz_solid_50) of phi = 6.88247e-06

volFieldValue volFieldValue_51 write:
    volIntegrate(cz_solid_51) of U = (7.11685e-10 -8.07492e-09 3.55767e-09)

surfaceFieldValue massFlowAtFilter_51 write:
    sum(fz_solid_51) of phi = -9.46016e-06

volFieldValue volFieldValue_52 write:
    volIntegrate(cz_solid_52) of U = (1.98763e-09 -9.1355e-09 3.66804e-09)

surfaceFieldValue massFlowAtFilter_52 write:
    sum(fz_solid_52) of phi = -2.4936e-06

volFieldValue volFieldValue_53 write:
    volIntegrate(cz_solid_53) of U = (3.38746e-09 -1.08526e-08 3.52175e-09)

surfaceFieldValue massFlowAtFilter_53 write:
    sum(fz_solid_53) of phi = 1.73104e-05

volFieldValue volFieldValue_54 write:
    volIntegrate(cz_solid_54) of U = (4.67986e-09 -1.34566e-08 3.14038e-09)

surfaceFieldValue massFlowAtFilter_54 write:
    sum(fz_solid_54) of phi = 4.10905e-05

volFieldValue volFieldValue_55 write:
    volIntegrate(cz_solid_55) of U = (5.48965e-09 -1.49737e-08 2.24164e-09)

surfaceFieldValue massFlowAtFilter_55 write:
    sum(fz_solid_55) of phi = 2.72176e-05

volFieldValue volFieldValue_56 write:
    volIntegrate(cz_solid_56) of U = (5.04337e-09 -1.46049e-08 1.39669e-09)

surfaceFieldValue massFlowAtFilter_56 write:
    sum(fz_solid_56) of phi = -2.08581e-05

volFieldValue volFieldValue_57 write:
    volIntegrate(cz_solid_57) of U = (3.66504e-09 -1.16329e-08 4.03758e-10)

surfaceFieldValue massFlowAtFilter_57 write:
    sum(fz_solid_57) of phi = 2.64805e-06

volFieldValue volFieldValue_58 write:
    volIntegrate(cz_solid_58) of U = (2.40971e-09 -9.03608e-09 -6.66236e-10)

surfaceFieldValue massFlowAtFilter_58 write:
    sum(fz_solid_58) of phi = -2.86788e-08

volFieldValue volFieldValue_59 write:
    volIntegrate(cz_solid_59) of U = (1.50277e-09 -7.34816e-09 -1.07544e-09)

surfaceFieldValue massFlowAtFilter_59 write:
    sum(fz_solid_59) of phi = 5.67768e-06

volFieldValue volFieldValue_60 write:
    volIntegrate(cz_solid_60) of U = (-9.66214e-11 -5.05147e-09 4.11068e-10)

surfaceFieldValue massFlowAtFilter_60 write:
    sum(fz_solid_60) of phi = -5.20078e-06

volFieldValue volFieldValue_61 write:
    volIntegrate(cz_solid_61) of U = (2.28906e-12 -4.53246e-09 1.84259e-10)

surfaceFieldValue massFlowAtFilter_61 write:
    sum(fz_solid_61) of phi = -9.49842e-06

volFieldValue volFieldValue_62 write:
    volIntegrate(cz_solid_62) of U = (-4.32102e-11 -4.37286e-09 6.71941e-11)

surfaceFieldValue massFlowAtFilter_62 write:
    sum(fz_solid_62) of phi = -1.25822e-05

volFieldValue volFieldValue_63 write:
    volIntegrate(cz_solid_63) of U = (-1.88269e-10 -4.11474e-09 7.21741e-11)

surfaceFieldValue massFlowAtFilter_63 write:
    sum(fz_solid_63) of phi = -1.8709e-05

volFieldValue volFieldValue_64 write:
    volIntegrate(cz_solid_64) of U = (-3.50919e-10 -3.71229e-09 1.09599e-10)

surfaceFieldValue massFlowAtFilter_64 write:
    sum(fz_solid_64) of phi = -1.78875e-05

volFieldValue volFieldValue_65 write:
    volIntegrate(cz_solid_65) of U = (-5.69219e-10 -3.60308e-09 2.27177e-10)

surfaceFieldValue massFlowAtFilter_65 write:
    sum(fz_solid_65) of phi = -2.36751e-05

volFieldValue volFieldValue_66 write:
    volIntegrate(cz_solid_66) of U = (-8.04155e-10 -3.7656e-09 4.39131e-10)

surfaceFieldValue massFlowAtFilter_66 write:
    sum(fz_solid_66) of phi = -2.51661e-05

volFieldValue volFieldValue_67 write:
    volIntegrate(cz_solid_67) of U = (-9.17813e-10 -3.75984e-09 8.84493e-10)

surfaceFieldValue massFlowAtFilter_67 write:
    sum(fz_solid_67) of phi = -8.22382e-06

volFieldValue volFieldValue_68 write:
    volIntegrate(cz_solid_68) of U = (-8.48077e-10 -3.91296e-09 1.4015e-09)

surfaceFieldValue massFlowAtFilter_68 write:
    sum(fz_solid_68) of phi = -2.04884e-05

volFieldValue volFieldValue_69 write:
    volIntegrate(cz_solid_69) of U = (-4.70282e-10 -4.29528e-09 2.01991e-09)

surfaceFieldValue massFlowAtFilter_69 write:
    sum(fz_solid_69) of phi = -1.83603e-05

volFieldValue volFieldValue_70 write:
    volIntegrate(cz_solid_70) of U = (2.08661e-10 -4.82171e-09 2.57662e-09)

surfaceFieldValue massFlowAtFilter_70 write:
    sum(fz_solid_70) of phi = -2.89804e-05

volFieldValue volFieldValue_71 write:
    volIntegrate(cz_solid_71) of U = (1.12751e-09 -5.77259e-09 2.94623e-09)

surfaceFieldValue massFlowAtFilter_71 write:
    sum(fz_solid_71) of phi = -1.91914e-05

volFieldValue volFieldValue_72 write:
    volIntegrate(cz_solid_72) of U = (2.44841e-09 -7.06579e-09 3.13211e-09)

surfaceFieldValue massFlowAtFilter_72 write:
    sum(fz_solid_72) of phi = -3.60876e-05

volFieldValue volFieldValue_73 write:
    volIntegrate(cz_solid_73) of U = (4.22254e-09 -9.5854e-09 3.15153e-09)

surfaceFieldValue massFlowAtFilter_73 write:
    sum(fz_solid_73) of phi = -3.46615e-06

volFieldValue volFieldValue_74 write:
    volIntegrate(cz_solid_74) of U = (6.44253e-09 -1.40366e-08 3.02361e-09)

surfaceFieldValue massFlowAtFilter_74 write:
    sum(fz_solid_74) of phi = 4.68466e-05

volFieldValue volFieldValue_75 write:
    volIntegrate(cz_solid_75) of U = (9.05939e-09 -2.06849e-08 1.94609e-09)

surfaceFieldValue massFlowAtFilter_75 write:
    sum(fz_solid_75) of phi = 7.20039e-05

volFieldValue volFieldValue_76 write:
    volIntegrate(cz_solid_76) of U = (9.68729e-09 -3.18417e-08 1.45537e-09)

surfaceFieldValue massFlowAtFilter_76 write:
    sum(fz_solid_76) of phi = -8.60645e-06

volFieldValue volFieldValue_77 write:
    volIntegrate(cz_solid_77) of U = (3.12514e-09 -2.75496e-08 7.62981e-09)

surfaceFieldValue massFlowAtFilter_77 write:
    sum(fz_solid_77) of phi = 6.58161e-05

volFieldValue volFieldValue_78 write:
    volIntegrate(cz_solid_78) of U = (-2.41471e-09 -8.47086e-09 1.38563e-09)

surfaceFieldValue massFlowAtFilter_78 write:
    sum(fz_solid_78) of phi = -3.8651e-05

volFieldValue volFieldValue_79 write:
    volIntegrate(cz_solid_79) of U = (-5.37441e-10 -5.21967e-09 7.36262e-10)

surfaceFieldValue massFlowAtFilter_79 write:
    sum(fz_solid_79) of phi = -2.20554e-05

volFieldValue volFieldValue_80 write:
    volIntegrate(cz_solid_80) of U = (-7.84262e-10 -2.82838e-09 1.50188e-09)

surfaceFieldValue massFlowAtFilter_80 write:
    sum(fz_solid_80) of phi = -3.59964e-05

volFieldValue volFieldValue_81 write:
    volIntegrate(cz_solid_81) of U = (-2.36366e-10 -2.39144e-09 1.05744e-09)

surfaceFieldValue massFlowAtFilter_81 write:
    sum(fz_solid_81) of phi = -2.44894e-05

volFieldValue volFieldValue_82 write:
    volIntegrate(cz_solid_82) of U = (-1.59464e-11 -2.07348e-09 6.87529e-10)

surfaceFieldValue massFlowAtFilter_82 write:
    sum(fz_solid_82) of phi = -5.821e-06

volFieldValue volFieldValue_83 write:
    volIntegrate(cz_solid_83) of U = (-5.26944e-11 -1.76062e-09 5.11996e-10)

surfaceFieldValue massFlowAtFilter_83 write:
    sum(fz_solid_83) of phi = -1.60936e-05

volFieldValue volFieldValue_84 write:
    volIntegrate(cz_solid_84) of U = (-1.28548e-10 -1.47598e-09 3.80593e-10)

surfaceFieldValue massFlowAtFilter_84 write:
    sum(fz_solid_84) of phi = -1.64732e-05

volFieldValue volFieldValue_85 write:
    volIntegrate(cz_solid_85) of U = (-3.03198e-10 -1.34445e-09 3.98867e-10)

surfaceFieldValue massFlowAtFilter_85 write:
    sum(fz_solid_85) of phi = -3.05245e-05

volFieldValue volFieldValue_86 write:
    volIntegrate(cz_solid_86) of U = (-4.90156e-10 -1.39693e-09 5.20723e-10)

surfaceFieldValue massFlowAtFilter_86 write:
    sum(fz_solid_86) of phi = -1.93722e-05

volFieldValue volFieldValue_87 write:
    volIntegrate(cz_solid_87) of U = (-5.65457e-10 -1.40956e-09 8.67224e-10)

surfaceFieldValue massFlowAtFilter_87 write:
    sum(fz_solid_87) of phi = 1.80083e-05

volFieldValue volFieldValue_88 write:
    volIntegrate(cz_solid_88) of U = (-4.74735e-10 -1.5548e-09 1.2972e-09)

surfaceFieldValue massFlowAtFilter_88 write:
    sum(fz_solid_88) of phi = -1.83562e-05

volFieldValue volFieldValue_89 write:
    volIntegrate(cz_solid_89) of U = (-1.18961e-10 -1.8051e-09 1.81964e-09)

surfaceFieldValue massFlowAtFilter_89 write:
    sum(fz_solid_89) of phi = -2.38905e-06

volFieldValue volFieldValue_90 write:
    volIntegrate(cz_solid_90) of U = (5.45075e-10 -2.02465e-09 2.3171e-09)

surfaceFieldValue massFlowAtFilter_90 write:
    sum(fz_solid_90) of phi = -2.0362e-05

volFieldValue volFieldValue_91 write:
    volIntegrate(cz_solid_91) of U = (1.48826e-09 -2.41246e-09 2.6679e-09)

surfaceFieldValue massFlowAtFilter_91 write:
    sum(fz_solid_91) of phi = 6.26205e-06

volFieldValue volFieldValue_92 write:
    volIntegrate(cz_solid_92) of U = (2.98701e-09 -3.0032e-09 2.81756e-09)

surfaceFieldValue massFlowAtFilter_92 write:
    sum(fz_solid_92) of phi = -1.26437e-05

volFieldValue volFieldValue_93 write:
    volIntegrate(cz_solid_93) of U = (5.22599e-09 -4.26444e-09 2.72297e-09)

surfaceFieldValue massFlowAtFilter_93 write:
    sum(fz_solid_93) of phi = 3.16016e-05

volFieldValue volFieldValue_94 write:
    volIntegrate(cz_solid_94) of U = (8.47529e-09 -6.01206e-09 2.45783e-09)

surfaceFieldValue massFlowAtFilter_94 write:
    sum(fz_solid_94) of phi = 0.000157245

volFieldValue volFieldValue_95 write:
[...]
    sum(fz_solid_90) of phi = -0.000757372

volFieldValue volFieldValue_91 write:
    volIntegrate(cz_solid_91) of U = (1.3109e-09 -5.77002e-08 -1.40174e-09)

surfaceFieldValue massFlowAtFilter_91 write:
    sum(fz_solid_91) of phi = -2.21497e-05

volFieldValue volFieldValue_92 write:
    volIntegrate(cz_solid_92) of U = (7.77386e-10 -7.45117e-08 -1.56103e-09)

surfaceFieldValue massFlowAtFilter_92 write:
    sum(fz_solid_92) of phi = 8.0567e-06

volFieldValue volFieldValue_93 write:
    volIntegrate(cz_solid_93) of U = (-7.00449e-10 -6.66112e-08 -2.52575e-09)

surfaceFieldValue massFlowAtFilter_93 write:
    sum(fz_solid_93) of phi = -0.000237618

volFieldValue volFieldValue_94 write:
    volIntegrate(cz_solid_94) of U = (-2.63584e-09 -6.66453e-09 -1.63812e-09)

surfaceFieldValue massFlowAtFilter_94 write:
    sum(fz_solid_94) of phi = 0.000414648

volFieldValue volFieldValue_95 write:
    volIntegrate(cz_solid_95) of U = (-1.92556e-09 4.4129e-08 -1.03785e-09)

surfaceFieldValue massFlowAtFilter_95 write:
    sum(fz_solid_95) of phi = -2.22832e-06

volFieldValue volFieldValue_96 write:
    volIntegrate(cz_solid_96) of U = (-1.07739e-09 5.78992e-08 -7.9065e-10)

surfaceFieldValue massFlowAtFilter_96 write:
    sum(fz_solid_96) of phi = 0.000140294

volFieldValue volFieldValue_97 write:
    volIntegrate(cz_solid_97) of U = (-5.81121e-10 6.4691e-08 -8.05741e-11)

surfaceFieldValue massFlowAtFilter_97 write:
    sum(fz_solid_97) of phi = 0.000162328

volFieldValue volFieldValue_98 write:
    volIntegrate(cz_solid_98) of U = (-5.99817e-10 4.16629e-08 1.99989e-10)

surfaceFieldValue massFlowAtFilter_98 write:
    sum(fz_solid_98) of phi = -0.000117832

volFieldValue volFieldValue_99 write:
    volIntegrate(cz_solid_99) of U = (-5.99981e-10 1.86186e-08 4.14587e-10)

surfaceFieldValue massFlowAtFilter_99 write:
    sum(fz_solid_99) of phi = 1.64531e-07

Time = 981

DILUPBiCG:  Solving for Ux, Initial residual = 1.73601e-07, Final residual = 1.73601e-07, No Iterations 0
DILUPBiCG:  Solving for Uy, Initial residual = 1.85255e-07, Final residual = 1.85255e-07, No Iterations 0
DILUPBiCG:  Solving for Uz, Initial residual = 4.47195e-07, Final residual = 4.47195e-07, No Iterations 0
DICPCG:  Solving for p, Initial residual = 0.00101215, Final residual = 9.95194e-05, No Iterations 13
DICPCG:  Solving for p, Initial residual = 0.000230355, Final residual = 2.21125e-05, No Iterations 23
DICPCG:  Solving for p, Initial residual = 5.16887e-05, Final residual = 9.9351e-06, No Iterations 31
time step continuity errors : sum local = 0.000106661, global = -8.61186e-06, cumulative = -0.00679365
DILUPBiCG:  Solving for epsilon, Initial residual = 0.000858257, Final residual = 9.02857e-06, No Iterations 2
DILUPBiCG:  Solving for k, Initial residual = 0.000826648, Final residual = 3.92408e-07, No Iterations 3
ExecutionTime = 1988.83 s  ClockTime = 2067 s

Time = 982

DILUPBiCG:  Solving for Ux, Initial residual = 1.73134e-07, Final residual = 1.73134e-07, No Iterations 0
DILUPBiCG:  Solving for Uy, Initial residual = 1.85272e-07, Final residual = 1.85272e-07, No Iterations 0
DILUPBiCG:  Solving for Uz, Initial residual = 4.4437e-07, Final residual = 4.4437e-07, No Iterations 0
DICPCG:  Solving for p, Initial residual = 0.00101444, Final residual = 9.67468e-05, No Iterations 13
DICPCG:  Solving for p, Initial residual = 0.000228623, Final residual = 2.22443e-05, No Iterations 23
DICPCG:  Solving for p, Initial residual = 5.1485e-05, Final residual = 9.09435e-06, No Iterations 58
time step continuity errors : sum local = 9.76618e-05, global = -5.86363e-06, cumulative = -0.00679951
DILUPBiCG:  Solving for epsilon, Initial residual = 0.000857874, Final residual = 8.94426e-06, No Iterations 2
DILUPBiCG:  Solving for k, Initial residual = 0.000826134, Final residual = 3.90597e-07, No Iterations 3
ExecutionTime = 1990.4 s  ClockTime = 2068 s

Time = 983

DILUPBiCG:  Solving for Ux, Initial residual = 1.72641e-07, Final residual = 1.72641e-07, No Iterations 0
DILUPBiCG:  Solving for Uy, Initial residual = 1.85278e-07, Final residual = 1.85278e-07, No Iterations 0
DILUPBiCG:  Solving for Uz, Initial residual = 4.41483e-07, Final residual = 4.41483e-07, No Iterations 0
DICPCG:  Solving for p, Initial residual = 0.00101602, Final residual = 9.51492e-05, No Iterations 13
DICPCG:  Solving for p, Initial residual = 0.000227843, Final residual = 2.25404e-05, No Iterations 22
DICPCG:  Solving for p, Initial residual = 5.15579e-05, Final residual = 9.62286e-06, No Iterations 57
time step continuity errors : sum local = 0.000103363, global = -8.34591e-06, cumulative = -0.00680786
DILUPBiCG:  Solving for epsilon, Initial residual = 0.000857507, Final residual = 8.85956e-06, No Iterations 2
DILUPBiCG:  Solving for k, Initial residual = 0.000825642, Final residual = 3.88718e-07, No Iterations 3
ExecutionTime = 1991.94 s  ClockTime = 2070 s

Time = 984

DILUPBiCG:  Solving for Ux, Initial residual = 1.72139e-07, Final residual = 1.72139e-07, No Iterations 0
DILUPBiCG:  Solving for Uy, Initial residual = 1.85281e-07, Final residual = 1.85281e-07, No Iterations 0
DILUPBiCG:  Solving for Uz, Initial residual = 4.38608e-07, Final residual = 4.38608e-07, No Iterations 0
DICPCG:  Solving for p, Initial residual = 0.00101547, Final residual = 9.39615e-05, No Iterations 13
DICPCG:  Solving for p, Initial residual = 0.000226585, Final residual = 2.1736e-05, No Iterations 22
DICPCG:  Solving for p, Initial residual = 5.07975e-05, Final residual = 9.52499e-06, No Iterations 30
time step continuity errors : sum local = 0.000102344, global = -1.5133e-05, cumulative = -0.00682299
DILUPBiCG:  Solving for epsilon, Initial residual = 0.000857127, Final residual = 8.76537e-06, No Iterations 2
DILUPBiCG:  Solving for k, Initial residual = 0.000825204, Final residual = 3.8688e-07, No Iterations 3
ExecutionTime = 1993.28 s  ClockTime = 2071 s

Time = 985

DILUPBiCG:  Solving for Ux, Initial residual = 1.71637e-07, Final residual = 1.71637e-07, No Iterations 0
DILUPBiCG:  Solving for Uy, Initial residual = 1.8528e-07, Final residual = 1.8528e-07, No Iterations 0
DILUPBiCG:  Solving for Uz, Initial residual = 4.35808e-07, Final residual = 4.35808e-07, No Iterations 0
DICPCG:  Solving for p, Initial residual = 0.0010123, Final residual = 9.297e-05, No Iterations 13
DICPCG:  Solving for p, Initial residual = 0.000225901, Final residual = 2.17641e-05, No Iterations 22
DICPCG:  Solving for p, Initial residual = 5.06446e-05, Final residual = 9.95922e-06, No Iterations 59
time step continuity errors : sum local = 0.000107045, global = -1.42109e-05, cumulative = -0.0068372
DILUPBiCG:  Solving for epsilon, Initial residual = 0.000856687, Final residual = 8.66976e-06, No Iterations 2
DILUPBiCG:  Solving for k, Initial residual = 0.000824757, Final residual = 3.85158e-07, No Iterations 3
ExecutionTime = 1994.84 s  ClockTime = 2073 s

Time = 986

DILUPBiCG:  Solving for Ux, Initial residual = 1.71117e-07, Final residual = 1.71117e-07, No Iterations 0
DILUPBiCG:  Solving for Uy, Initial residual = 1.85271e-07, Final residual = 1.85271e-07, No Iterations 0
DILUPBiCG:  Solving for Uz, Initial residual = 4.32956e-07, Final residual = 4.32956e-07, No Iterations 0
DICPCG:  Solving for p, Initial residual = 0.00101209, Final residual = 9.43924e-05, No Iterations 13
DICPCG:  Solving for p, Initial residual = 0.000227303, Final residual = 2.13169e-05, No Iterations 22
DICPCG:  Solving for p, Initial residual = 5.04308e-05, Final residual = 9.89261e-06, No Iterations 30
time step continuity errors : sum local = 0.000106371, global = -2.23343e-05, cumulative = -0.00685953
DILUPBiCG:  Solving for epsilon, Initial residual = 0.000856283, Final residual = 8.6215e-06, No Iterations 2
DILUPBiCG:  Solving for k, Initial residual = 0.000824355, Final residual = 3.83372e-07, No Iterations 3
ExecutionTime = 1996.18 s  ClockTime = 2074 s

Time = 987

DILUPBiCG:  Solving for Ux, Initial residual = 1.70609e-07, Final residual = 1.70609e-07, No Iterations 0
DILUPBiCG:  Solving for Uy, Initial residual = 1.85262e-07, Final residual = 1.85262e-07, No Iterations 0
DILUPBiCG:  Solving for Uz, Initial residual = 4.30188e-07, Final residual = 4.30188e-07, No Iterations 0
DICPCG:  Solving for p, Initial residual = 0.0010122, Final residual = 9.33928e-05, No Iterations 13
DICPCG:  Solving for p, Initial residual = 0.000226758, Final residual = 2.1508e-05, No Iterations 22
DICPCG:  Solving for p, Initial residual = 5.03893e-05, Final residual = 9.91446e-06, No Iterations 68
time step continuity errors : sum local = 0.000106646, global = -2.17861e-05, cumulative = -0.00688132
DILUPBiCG:  Solving for epsilon, Initial residual = 0.000855818, Final residual = 8.51448e-06, No Iterations 2
DILUPBiCG:  Solving for k, Initial residual = 0.000823939, Final residual = 3.81625e-07, No Iterations 3
ExecutionTime = 1997.83 s  ClockTime = 2076 s

Time = 988

DILUPBiCG:  Solving for Ux, Initial residual = 1.70087e-07, Final residual = 1.70087e-07, No Iterations 0
DILUPBiCG:  Solving for Uy, Initial residual = 1.85245e-07, Final residual = 1.85245e-07, No Iterations 0
DILUPBiCG:  Solving for Uz, Initial residual = 4.27371e-07, Final residual = 4.27371e-07, No Iterations 0
DICPCG:  Solving for p, Initial residual = 0.001011, Final residual = 9.3794e-05, No Iterations 13
DICPCG:  Solving for p, Initial residual = 0.000227003, Final residual = 2.17274e-05, No Iterations 22
DICPCG:  Solving for p, Initial residual = 5.06416e-05, Final residual = 9.85041e-06, No Iterations 272
time step continuity errors : sum local = 0.000106002, global = -4.87648e-07, cumulative = -0.00688181
DILUPBiCG:  Solving for epsilon, Initial residual = 0.00085548, Final residual = 8.84788e-06, No Iterations 2
DILUPBiCG:  Solving for k, Initial residual = 0.000823649, Final residual = 3.79895e-07, No Iterations 3
ExecutionTime = 2000.97 s  ClockTime = 2079 s

Time = 989

DILUPBiCG:  Solving for Ux, Initial residual = 1.69585e-07, Final residual = 1.69585e-07, No Iterations 0
DILUPBiCG:  Solving for Uy, Initial residual = 1.85268e-07, Final residual = 1.85268e-07, No Iterations 0
DILUPBiCG:  Solving for Uz, Initial residual = 4.24643e-07, Final residual = 4.24643e-07, No Iterations 0
DICPCG:  Solving for p, Initial residual = 0.00100611, Final residual = 9.38229e-05, No Iterations 13
DICPCG:  Solving for p, Initial residual = 0.000226667, Final residual = 2.13762e-05, No Iterations 22
DICPCG:  Solving for p, Initial residual = 5.03498e-05, Final residual = 9.94452e-06, No Iterations 16
time step continuity errors : sum local = 0.000107243, global = -1.87002e-05, cumulative = -0.00690051
DILUPBiCG:  Solving for epsilon, Initial residual = 0.000854947, Final residual = 8.69977e-06, No Iterations 2
DILUPBiCG:  Solving for k, Initial residual = 0.000823283, Final residual = 3.78151e-07, No Iterations 3
ExecutionTime = 2002.23 s  ClockTime = 2080 s

Time = 990

DILUPBiCG:  Solving for Ux, Initial residual = 1.69063e-07, Final residual = 1.69063e-07, No Iterations 0
DILUPBiCG:  Solving for Uy, Initial residual = 1.8523e-07, Final residual = 1.8523e-07, No Iterations 0
DILUPBiCG:  Solving for Uz, Initial residual = 4.21819e-07, Final residual = 4.21819e-07, No Iterations 0
DICPCG:  Solving for p, Initial residual = 0.00100713, Final residual = 9.45087e-05, No Iterations 13
DICPCG:  Solving for p, Initial residual = 0.000227533, Final residual = 2.20762e-05, No Iterations 23
DICPCG:  Solving for p, Initial residual = 5.12111e-05, Final residual = 9.59813e-06, No Iterations 29
time step continuity errors : sum local = 0.000103574, global = -1.78436e-05, cumulative = -0.00691835
DILUPBiCG:  Solving for epsilon, Initial residual = 0.000854578, Final residual = 9.11284e-06, No Iterations 2
DILUPBiCG:  Solving for k, Initial residual = 0.000822994, Final residual = 3.76405e-07, No Iterations 3
ExecutionTime = 2003.59 s  ClockTime = 2081 s

Time = 991

DILUPBiCG:  Solving for Ux, Initial residual = 1.68578e-07, Final residual = 1.68578e-07, No Iterations 0
DILUPBiCG:  Solving for Uy, Initial residual = 1.85195e-07, Final residual = 1.85195e-07, No Iterations 0
DILUPBiCG:  Solving for Uz, Initial residual = 4.19094e-07, Final residual = 4.19094e-07, No Iterations 0
DICPCG:  Solving for p, Initial residual = 0.00100871, Final residual = 9.45168e-05, No Iterations 13
DICPCG:  Solving for p, Initial residual = 0.000227244, Final residual = 2.16185e-05, No Iterations 24
DICPCG:  Solving for p, Initial residual = 5.05217e-05, Final residual = 9.90427e-06, No Iterations 31
time step continuity errors : sum local = 0.000106935, global = -1.687e-05, cumulative = -0.00693522
DILUPBiCG:  Solving for epsilon, Initial residual = 0.000854134, Final residual = 8.77673e-06, No Iterations 2
DILUPBiCG:  Solving for k, Initial residual = 0.000822702, Final residual = 3.74755e-07, No Iterations 3
ExecutionTime = 2004.93 s  ClockTime = 2083 s

Time = 992

DILUPBiCG:  Solving for Ux, Initial residual = 1.68104e-07, Final residual = 1.68104e-07, No Iterations 0
DILUPBiCG:  Solving for Uy, Initial residual = 1.85152e-07, Final residual = 1.85152e-07, No Iterations 0
DILUPBiCG:  Solving for Uz, Initial residual = 4.16384e-07, Final residual = 4.16384e-07, No Iterations 0
DICPCG:  Solving for p, Initial residual = 0.00100684, Final residual = 9.23055e-05, No Iterations 13
DICPCG:  Solving for p, Initial residual = 0.0002254, Final residual = 2.17012e-05, No Iterations 24
DICPCG:  Solving for p, Initial residual = 5.02596e-05, Final residual = 9.87914e-06, No Iterations 58
time step continuity errors : sum local = 0.00010675, global = -1.1664e-05, cumulative = -0.00694689
DILUPBiCG:  Solving for epsilon, Initial residual = 0.000853659, Final residual = 8.71468e-06, No Iterations 2
DILUPBiCG:  Solving for k, Initial residual = 0.000822417, Final residual = 3.73181e-07, No Iterations 3
ExecutionTime = 2006.48 s  ClockTime = 2084 s

Time = 993

DILUPBiCG:  Solving for Ux, Initial residual = 1.67611e-07, Final residual = 1.67611e-07, No Iterations 0
DILUPBiCG:  Solving for Uy, Initial residual = 1.851e-07, Final residual = 1.851e-07, No Iterations 0
DILUPBiCG:  Solving for Uz, Initial residual = 4.13666e-07, Final residual = 4.13666e-07, No Iterations 0
DICPCG:  Solving for p, Initial residual = 0.00100667, Final residual = 9.08745e-05, No Iterations 13
DICPCG:  Solving for p, Initial residual = 0.000224554, Final residual = 2.21965e-05, No Iterations 22
DICPCG:  Solving for p, Initial residual = 5.07236e-05, Final residual = 9.96052e-06, No Iterations 56
time step continuity errors : sum local = 0.000107722, global = -1.17041e-05, cumulative = -0.00695859
DILUPBiCG:  Solving for epsilon, Initial residual = 0.000853148, Final residual = 8.61766e-06, No Iterations 2
DILUPBiCG:  Solving for k, Initial residual = 0.000822116, Final residual = 3.71609e-07, No Iterations 3
ExecutionTime = 2008.01 s  ClockTime = 2086 s

Time = 994

DILUPBiCG:  Solving for Ux, Initial residual = 1.67112e-07, Final residual = 1.67112e-07, No Iterations 0
DILUPBiCG:  Solving for Uy, Initial residual = 1.85048e-07, Final residual = 1.85048e-07, No Iterations 0
DILUPBiCG:  Solving for Uz, Initial residual = 4.10946e-07, Final residual = 4.10946e-07, No Iterations 0
DICPCG:  Solving for p, Initial residual = 0.00101102, Final residual = 9.87254e-05, No Iterations 12
DICPCG:  Solving for p, Initial residual = 0.000233094, Final residual = 2.29746e-05, No Iterations 22
DICPCG:  Solving for p, Initial residual = 5.25673e-05, Final residual = 9.70924e-06, No Iterations 28
time step continuity errors : sum local = 0.000105098, global = -1.63425e-05, cumulative = -0.00697493
DILUPBiCG:  Solving for epsilon, Initial residual = 0.000852582, Final residual = 8.59961e-06, No Iterations 2
DILUPBiCG:  Solving for k, Initial residual = 0.000821835, Final residual = 3.70113e-07, No Iterations 3
ExecutionTime = 2009.31 s  ClockTime = 2087 s

Time = 995

DILUPBiCG:  Solving for Ux, Initial residual = 1.66623e-07, Final residual = 1.66623e-07, No Iterations 0
DILUPBiCG:  Solving for Uy, Initial residual = 1.84994e-07, Final residual = 1.84994e-07, No Iterations 0
DILUPBiCG:  Solving for Uz, Initial residual = 4.08301e-07, Final residual = 4.08301e-07, No Iterations 0
DICPCG:  Solving for p, Initial residual = 0.00101241, Final residual = 9.53279e-05, No Iterations 12
DICPCG:  Solving for p, Initial residual = 0.000230878, Final residual = 2.25547e-05, No Iterations 22
DICPCG:  Solving for p, Initial residual = 5.19911e-05, Final residual = 9.93112e-06, No Iterations 57
time step continuity errors : sum local = 0.000107546, global = -1.30914e-05, cumulative = -0.00698802
DILUPBiCG:  Solving for epsilon, Initial residual = 0.000852001, Final residual = 8.53722e-06, No Iterations 2
DILUPBiCG:  Solving for k, Initial residual = 0.000821557, Final residual = 3.68605e-07, No Iterations 3
ExecutionTime = 2010.83 s  ClockTime = 2089 s

Time = 996

DILUPBiCG:  Solving for Ux, Initial residual = 1.6612e-07, Final residual = 1.6612e-07, No Iterations 0
DILUPBiCG:  Solving for Uy, Initial residual = 1.84928e-07, Final residual = 1.84928e-07, No Iterations 0
DILUPBiCG:  Solving for Uz, Initial residual = 4.05607e-07, Final residual = 4.05607e-07, No Iterations 0
DICPCG:  Solving for p, Initial residual = 0.00100846, Final residual = 9.51702e-05, No Iterations 12
DICPCG:  Solving for p, Initial residual = 0.000230751, Final residual = 2.20973e-05, No Iterations 22
DICPCG:  Solving for p, Initial residual = 5.146e-05, Final residual = 9.73809e-06, No Iterations 29
time step continuity errors : sum local = 0.000105431, global = -1.90407e-05, cumulative = -0.00700706
DILUPBiCG:  Solving for epsilon, Initial residual = 0.000851446, Final residual = 8.55759e-06, No Iterations 2
DILUPBiCG:  Solving for k, Initial residual = 0.00082129, Final residual = 3.67107e-07, No Iterations 3
ExecutionTime = 2012.14 s  ClockTime = 2090 s

Time = 997

DILUPBiCG:  Solving for Ux, Initial residual = 1.6562e-07, Final residual = 1.6562e-07, No Iterations 0
DILUPBiCG:  Solving for Uy, Initial residual = 1.84861e-07, Final residual = 1.84861e-07, No Iterations 0
DILUPBiCG:  Solving for Uz, Initial residual = 4.03e-07, Final residual = 4.03e-07, No Iterations 0
DICPCG:  Solving for p, Initial residual = 0.0010041, Final residual = 9.42927e-05, No Iterations 12
DICPCG:  Solving for p, Initial residual = 0.000229647, Final residual = 2.27622e-05, No Iterations 22
DICPCG:  Solving for p, Initial residual = 5.16403e-05, Final residual = 9.91154e-06, No Iterations 68
time step continuity errors : sum local = 0.00010732, global = -1.57885e-05, cumulative = -0.00702285
DILUPBiCG:  Solving for epsilon, Initial residual = 0.000850807, Final residual = 8.49942e-06, No Iterations 2
DILUPBiCG:  Solving for k, Initial residual = 0.000820995, Final residual = 3.65597e-07, No Iterations 3
ExecutionTime = 2013.75 s  ClockTime = 2091 s

Time = 998

DILUPBiCG:  Solving for Ux, Initial residual = 1.65082e-07, Final residual = 1.65082e-07, No Iterations 0
DILUPBiCG:  Solving for Uy, Initial residual = 1.84786e-07, Final residual = 1.84786e-07, No Iterations 0
DILUPBiCG:  Solving for Uz, Initial residual = 4.0034e-07, Final residual = 4.0034e-07, No Iterations 0
DICPCG:  Solving for p, Initial residual = 0.000998438, Final residual = 9.40075e-05, No Iterations 12
DICPCG:  Solving for p, Initial residual = 0.000228833, Final residual = 2.24393e-05, No Iterations 22
DICPCG:  Solving for p, Initial residual = 5.13001e-05, Final residual = 9.48382e-06, No Iterations 70
time step continuity errors : sum local = 0.000102728, global = -1.83194e-05, cumulative = -0.00704117
DILUPBiCG:  Solving for epsilon, Initial residual = 0.000850161, Final residual = 8.53495e-06, No Iterations 2
DILUPBiCG:  Solving for k, Initial residual = 0.000820702, Final residual = 3.64079e-07, No Iterations 3
ExecutionTime = 2015.36 s  ClockTime = 2093 s


SIMPLE solution converged in 998 iterations

End

Finalising parallel run
