/*---------------------------------------------------------------------------*\
  =========                 |
  \\      /  F ield         | OpenFOAM: The Open Source CFD Toolbox
   \\    /   O peration     | Website:  https://openfoam.org
    \\  /    A nd           | Version:  6
     \\/     M anipulation  |
\*---------------------------------------------------------------------------*/
Build  : 6
Exec   : bouSimpleFoam -parallel
Date   : Aug 07 2020
Time   : 20:47:19
Host   : "emps-ugcs2"
PID    : 26413
I/O    : uncollated
Case   : /home/links/jjw230/upload/Case10
nProcs : 4
Slaves : 
3
(
"emps-ugcs2.26414"
"emps-ugcs2.26415"
"emps-ugcs2.26416"
)

Pstream initialized with:
    floatTransfer      : 0
    nProcsSimpleSum    : 0
    commsType          : nonBlocking
    polling iterations : 0
sigFpe : Enabling floating point exception trapping (FOAM_SIGFPE).
fileModificationChecking : Monitoring run-time modified files using timeStampMaster (fileModificationSkew 10)
allowSystemOperations : Allowing user-supplied system call operations

// * * * * * * * * * * * * * * * * * * * * * * * * * * * * * * * * * * * * * //
Create time

Create mesh for time = 0


SIMPLE: Convergence criteria found
        p: tolerance 0.001
        U: tolerance 0.001
        "(k|epsilon)": tolerance 0.001
        theta: tolerance 0.001

Reading field p

Reading field U

Reading field theta

Reading/calculating face flux field phi

Selecting incompressible transport model Newtonian
Selecting turbulence model type RAS
Selecting RAS turbulence model RNGkEpsilon
RAS
{
    RASModel        RNGkEpsilon;
    turbulence      on;
    printCoeffs     on;
    Cmu             0.0845;
    C1              1.42;
    C2              1.68;
    C3              0;
    sigmak          0.71942;
    sigmaEps        0.71942;
    eta0            4.38;
    beta            0.012;
}

No MRF models present

Creating finite volume options from "system/fvOptions"

Selecting finite volume options model type explicitPorositySource
    Source: source0
    - selecting cells using cellZone cz_solid_0
    - selected 2072 cell(s) with volume 0.00214219
Porosity region source0:
    selecting model: DarcyForchheimer
    creating porous zone: cz_solid_0
Selecting finite volume options model type explicitPorositySource
    Source: source1
    - selecting cells using cellZone cz_solid_1
    - selected 2082 cell(s) with volume 0.00214478
Porosity region source1:
    selecting model: DarcyForchheimer
    creating porous zone: cz_solid_1
Selecting finite volume options model type explicitPorositySource
    Source: source2
    - selecting cells using cellZone cz_solid_2
    - selected 2030 cell(s) with volume 0.00214182
Porosity region source2:
    selecting model: DarcyForchheimer
    creating porous zone: cz_solid_2
Selecting finite volume options model type explicitPorositySource
    Source: source3
    - selecting cells using cellZone cz_solid_3
    - selected 1925 cell(s) with volume 0.00214374
Porosity region source3:
    selecting model: DarcyForchheimer
    creating porous zone: cz_solid_3
Selecting finite volume options model type explicitPorositySource
    Source: source4
    - selecting cells using cellZone cz_solid_4
    - selected 1344 cell(s) with volume 0.00213915
Porosity region source4:
    selecting model: DarcyForchheimer
    creating porous zone: cz_solid_4
Selecting finite volume options model type explicitPorositySource
    Source: source5
    - selecting cells using cellZone cz_solid_5
    - selected 2044 cell(s) with volume 0.00214213
Porosity region source5:
    selecting model: DarcyForchheimer
    creating porous zone: cz_solid_5
Selecting finite volume options model type explicitPorositySource
    Source: source6
    - selecting cells using cellZone cz_solid_6
    - selected 1960 cell(s) with volume 0.00214343
Porosity region source6:
    selecting model: DarcyForchheimer
    creating porous zone: cz_solid_6
Selecting finite volume options model type explicitPorositySource
    Source: source7
    - selecting cells using cellZone cz_solid_7
    - selected 2027 cell(s) with volume 0.00214435
Porosity region source7:
    selecting model: DarcyForchheimer
    creating porous zone: cz_solid_7
Selecting finite volume options model type explicitPorositySource
    Source: source8
    - selecting cells using cellZone cz_solid_8
    - selected 1456 cell(s) with volume 0.00213929
Porosity region source8:
    selecting model: DarcyForchheimer
    creating porous zone: cz_solid_8
Selecting finite volume options model type explicitPorositySource
    Source: source9
    - selecting cells using cellZone cz_solid_9
    - selected 2016 cell(s) with volume 0.00214421
Porosity region source9:
    selecting model: DarcyForchheimer
    creating porous zone: cz_solid_9
Selecting finite volume options model type explicitPorositySource
    Source: source10
    - selecting cells using cellZone cz_solid_10
    - selected 2017 cell(s) with volume 0.00214456
Porosity region source10:
    selecting model: DarcyForchheimer
    creating porous zone: cz_solid_10
Selecting finite volume options model type explicitPorositySource
    Source: source11
    - selecting cells using cellZone cz_solid_11
    - selected 2072 cell(s) with volume 0.00214148
Porosity region source11:
    selecting model: DarcyForchheimer
    creating porous zone: cz_solid_11
Selecting finite volume options model type explicitPorositySource
    Source: source12
    - selecting cells using cellZone cz_solid_12
    - selected 2149 cell(s) with volume 0.00214455
Porosity region source12:
    selecting model: DarcyForchheimer
    creating porous zone: cz_solid_12
Selecting finite volume options model type explicitPorositySource
    Source: source13
    - selecting cells using cellZone cz_solid_13
    - selected 1797 cell(s) with volume 0.00214272
Porosity region source13:
    selecting model: DarcyForchheimer
    creating porous zone: cz_solid_13
Selecting finite volume options model type explicitPorositySource
    Source: source14
    - selecting cells using cellZone cz_solid_14
    - selected 1915 cell(s) with volume 0.0021454
Porosity region source14:
    selecting model: DarcyForchheimer
    creating porous zone: cz_solid_14
Selecting finite volume options model type explicitPorositySource
    Source: source15
    - selecting cells using cellZone cz_solid_15
    - selected 1938 cell(s) with volume 0.00214263
Porosity region source15:
    selecting model: DarcyForchheimer
    creating porous zone: cz_solid_15
Selecting finite volume options model type explicitPorositySource
    Source: source16
    - selecting cells using cellZone cz_solid_16
    - selected 1789 cell(s) with volume 0.00214189
Porosity region source16:
    selecting model: DarcyForchheimer
    creating porous zone: cz_solid_16
Selecting finite volume options model type explicitPorositySource
    Source: source17
    - selecting cells using cellZone cz_solid_17
    - selected 1906 cell(s) with volume 0.00213781
Porosity region source17:
    selecting model: DarcyForchheimer
    creating porous zone: cz_solid_17
Selecting finite volume options model type explicitPorositySource
    Source: source18
    - selecting cells using cellZone cz_solid_18
    - selected 1915 cell(s) with volume 0.00214532
Porosity region source18:
    selecting model: DarcyForchheimer
    creating porous zone: cz_solid_18
Selecting finite volume options model type explicitPorositySource
    Source: source19
    - selecting cells using cellZone cz_solid_19
    - selected 1918 cell(s) with volume 0.00214434
Porosity region source19:
    selecting model: DarcyForchheimer
    creating porous zone: cz_solid_19
Selecting finite volume options model type explicitPorositySource
    Source: source20
    - selecting cells using cellZone cz_solid_20
    - selected 2192 cell(s) with volume 0.00214222
Porosity region source20:
    selecting model: DarcyForchheimer
    creating porous zone: cz_solid_20
Selecting finite volume options model type explicitPorositySource
    Source: source21
    - selecting cells using cellZone cz_solid_21
    - selected 2192 cell(s) with volume 0.00214387
Porosity region source21:
    selecting model: DarcyForchheimer
    creating porous zone: cz_solid_21
Selecting finite volume options model type explicitPorositySource
    Source: source22
    - selecting cells using cellZone cz_solid_22
    - selected 2150 cell(s) with volume 0.00214204
Porosity region source22:
    selecting model: DarcyForchheimer
    creating porous zone: cz_solid_22
Selecting finite volume options model type explicitPorositySource
    Source: source23
    - selecting cells using cellZone cz_solid_23
    - selected 2044 cell(s) with volume 0.00214383
Porosity region source23:
    selecting model: DarcyForchheimer
    creating porous zone: cz_solid_23
Selecting finite volume options model type explicitPorositySource
    Source: source24
    - selecting cells using cellZone cz_solid_24
    - selected 1436 cell(s) with volume 0.00213934
Porosity region source24:
    selecting model: DarcyForchheimer
    creating porous zone: cz_solid_24
Selecting finite volume options model type explicitPorositySource
    Source: source25
    - selecting cells using cellZone cz_solid_25
    - selected 2136 cell(s) with volume 0.00214237
Porosity region source25:
    selecting model: DarcyForchheimer
    creating porous zone: cz_solid_25
Selecting finite volume options model type explicitPorositySource
    Source: source26
    - selecting cells using cellZone cz_solid_26
    - selected 2080 cell(s) with volume 0.00214354
Porosity region source26:
    selecting model: DarcyForchheimer
    creating porous zone: cz_solid_26
Selecting finite volume options model type explicitPorositySource
    Source: source27
    - selecting cells using cellZone cz_solid_27
    - selected 2122 cell(s) with volume 0.00214401
Porosity region source27:
    selecting model: DarcyForchheimer
    creating porous zone: cz_solid_27
Selecting finite volume options model type explicitPorositySource
    Source: source28
    - selecting cells using cellZone cz_solid_28
    - selected 1548 cell(s) with volume 0.00213984
Porosity region source28:
    selecting model: DarcyForchheimer
    creating porous zone: cz_solid_28
Selecting finite volume options model type explicitPorositySource
    Source: source29
    - selecting cells using cellZone cz_solid_29
    - selected 2080 cell(s) with volume 0.00214403
Porosity region source29:
    selecting model: DarcyForchheimer
    creating porous zone: cz_solid_29
Selecting finite volume options model type explicitPorositySource
    Source: source30
    - selecting cells using cellZone cz_solid_30
    - selected 2114 cell(s) with volume 0.00214494
Porosity region source30:
    selecting model: DarcyForchheimer
    creating porous zone: cz_solid_30
Selecting finite volume options model type explicitPorositySource
    Source: source31
    - selecting cells using cellZone cz_solid_31
    - selected 2192 cell(s) with volume 0.00214166
Porosity region source31:
    selecting model: DarcyForchheimer
    creating porous zone: cz_solid_31
Selecting finite volume options model type explicitPorositySource
    Source: source32
    - selecting cells using cellZone cz_solid_32
    - selected 2268 cell(s) with volume 0.00214493
Porosity region source32:
    selecting model: DarcyForchheimer
    creating porous zone: cz_solid_32
Selecting finite volume options model type explicitPorositySource
    Source: source33
    - selecting cells using cellZone cz_solid_33
    - selected 1858 cell(s) with volume 0.00214278
Porosity region source33:
    selecting model: DarcyForchheimer
    creating porous zone: cz_solid_33
Selecting finite volume options model type explicitPorositySource
    Source: source34
    - selecting cells using cellZone cz_solid_34
    - selected 1994 cell(s) with volume 0.00214507
Porosity region source34:
    selecting model: DarcyForchheimer
    creating porous zone: cz_solid_34
Selecting finite volume options model type explicitPorositySource
    Source: source35
    - selecting cells using cellZone cz_solid_35
    - selected 2080 cell(s) with volume 0.0021433
Porosity region source35:
    selecting model: DarcyForchheimer
    creating porous zone: cz_solid_35
Selecting finite volume options model type explicitPorositySource
    Source: source36
    - selecting cells using cellZone cz_solid_36
    - selected 1858 cell(s) with volume 0.00214239
Porosity region source36:
    selecting model: DarcyForchheimer
    creating porous zone: cz_solid_36
Selecting finite volume options model type explicitPorositySource
    Source: source37
    - selecting cells using cellZone cz_solid_37
    - selected 2022 cell(s) with volume 0.00213926
Porosity region source37:
    selecting model: DarcyForchheimer
    creating porous zone: cz_solid_37
Selecting finite volume options model type explicitPorositySource
    Source: source38
    - selecting cells using cellZone cz_solid_38
    - selected 1978 cell(s) with volume 0.00214512
Porosity region source38:
    selecting model: DarcyForchheimer
    creating porous zone: cz_solid_38
Selecting finite volume options model type explicitPorositySource
    Source: source39
    - selecting cells using cellZone cz_solid_39
    - selected 2010 cell(s) with volume 0.00214491
Porosity region source39:
    selecting model: DarcyForchheimer
    creating porous zone: cz_solid_39
Selecting finite volume options model type explicitPorositySource
    Source: source40
    - selecting cells using cellZone cz_solid_40
    - selected 2072 cell(s) with volume 0.00214203
Porosity region source40:
    selecting model: DarcyForchheimer
    creating porous zone: cz_solid_40
Selecting finite volume options model type explicitPorositySource
    Source: source41
    - selecting cells using cellZone cz_solid_41
    - selected 2100 cell(s) with volume 0.00214378
Porosity region source41:
    selecting model: DarcyForchheimer
    creating porous zone: cz_solid_41
Selecting finite volume options model type explicitPorositySource
    Source: source42
    - selecting cells using cellZone cz_solid_42
    - selected 2030 cell(s) with volume 0.00214187
Porosity region source42:
    selecting model: DarcyForchheimer
    creating porous zone: cz_solid_42
Selecting finite volume options model type explicitPorositySource
    Source: source43
    - selecting cells using cellZone cz_solid_43
    - selected 1925 cell(s) with volume 0.00214369
Porosity region source43:
    selecting model: DarcyForchheimer
    creating porous zone: cz_solid_43
Selecting finite volume options model type explicitPorositySource
    Source: source44
    - selecting cells using cellZone cz_solid_44
    - selected 1344 cell(s) with volume 0.00213908
Porosity region source44:
    selecting model: DarcyForchheimer
    creating porous zone: cz_solid_44
Selecting finite volume options model type explicitPorositySource
    Source: source45
    - selecting cells using cellZone cz_solid_45
    - selected 2044 cell(s) with volume 0.00214222
Porosity region source45:
    selecting model: DarcyForchheimer
    creating porous zone: cz_solid_45
Selecting finite volume options model type explicitPorositySource
    Source: source46
    - selecting cells using cellZone cz_solid_46
    - selected 1960 cell(s) with volume 0.0021436
Porosity region source46:
    selecting model: DarcyForchheimer
    creating porous zone: cz_solid_46
Selecting finite volume options model type explicitPorositySource
    Source: source47
    - selecting cells using cellZone cz_solid_47
    - selected 2030 cell(s) with volume 0.00214386
Porosity region source47:
    selecting model: DarcyForchheimer
    creating porous zone: cz_solid_47
Selecting finite volume options model type explicitPorositySource
    Source: source48
    - selecting cells using cellZone cz_solid_48
    - selected 1456 cell(s) with volume 0.00213951
Porosity region source48:
    selecting model: DarcyForchheimer
    creating porous zone: cz_solid_48
Selecting finite volume options model type explicitPorositySource
    Source: source49
    - selecting cells using cellZone cz_solid_49
    - selected 1960 cell(s) with volume 0.00214366
Porosity region source49:
    selecting model: DarcyForchheimer
    creating porous zone: cz_solid_49
Selecting finite volume options model type explicitPorositySource
    Source: source50
    - selecting cells using cellZone cz_solid_50
    - selected 1993 cell(s) with volume 0.00214493
Porosity region source50:
    selecting model: DarcyForchheimer
    creating porous zone: cz_solid_50
Selecting finite volume options model type explicitPorositySource
    Source: source51
    - selecting cells using cellZone cz_solid_51
    - selected 2072 cell(s) with volume 0.00214138
Porosity region source51:
    selecting model: DarcyForchheimer
    creating porous zone: cz_solid_51
Selecting finite volume options model type explicitPorositySource
    Source: source52
    - selecting cells using cellZone cz_solid_52
    - selected 2149 cell(s) with volume 0.00214479
Porosity region source52:
    selecting model: DarcyForchheimer
    creating porous zone: cz_solid_52
Selecting finite volume options model type explicitPorositySource
    Source: source53
    - selecting cells using cellZone cz_solid_53
    - selected 1801 cell(s) with volume 0.00214252
Porosity region source53:
    selecting model: DarcyForchheimer
    creating porous zone: cz_solid_53
Selecting finite volume options model type explicitPorositySource
    Source: source54
    - selecting cells using cellZone cz_solid_54
    - selected 1894 cell(s) with volume 0.00214485
Porosity region source54:
    selecting model: DarcyForchheimer
    creating porous zone: cz_solid_54
Selecting finite volume options model type explicitPorositySource
    Source: source55
    - selecting cells using cellZone cz_solid_55
    - selected 1938 cell(s) with volume 0.00214276
Porosity region source55:
    selecting model: DarcyForchheimer
    creating porous zone: cz_solid_55
Selecting finite volume options model type explicitPorositySource
    Source: source56
    - selecting cells using cellZone cz_solid_56
    - selected 1793 cell(s) with volume 0.00214228
Porosity region source56:
    selecting model: DarcyForchheimer
    creating porous zone: cz_solid_56
Selecting finite volume options model type explicitPorositySource
    Source: source57
    - selecting cells using cellZone cz_solid_57
    - selected 1896 cell(s) with volume 0.00213812
Porosity region source57:
    selecting model: DarcyForchheimer
    creating porous zone: cz_solid_57
Selecting finite volume options model type explicitPorositySource
    Source: source58
    - selecting cells using cellZone cz_solid_58
    - selected 1894 cell(s) with volume 0.00214472
Porosity region source58:
    selecting model: DarcyForchheimer
    creating porous zone: cz_solid_58
Selecting finite volume options model type explicitPorositySource
    Source: source59
    - selecting cells using cellZone cz_solid_59
    - selected 1918 cell(s) with volume 0.00214464
Porosity region source59:
    selecting model: DarcyForchheimer
    creating porous zone: cz_solid_59
Selecting finite volume options model type explicitPorositySource
    Source: source60
    - selecting cells using cellZone cz_solid_60
    - selected 2100 cell(s) with volume 0.00214191
Porosity region source60:
    selecting model: DarcyForchheimer
    creating porous zone: cz_solid_60
Selecting finite volume options model type explicitPorositySource
    Source: source61
    - selecting cells using cellZone cz_solid_61
    - selected 2100 cell(s) with volume 0.00214367
Porosity region source61:
    selecting model: DarcyForchheimer
    creating porous zone: cz_solid_61
Selecting finite volume options model type explicitPorositySource
    Source: source62
    - selecting cells using cellZone cz_solid_62
    - selected 2058 cell(s) with volume 0.0021416
Porosity region source62:
    selecting model: DarcyForchheimer
    creating porous zone: cz_solid_62
Selecting finite volume options model type explicitPorositySource
    Source: source63
    - selecting cells using cellZone cz_solid_63
    - selected 1946 cell(s) with volume 0.00214339
Porosity region source63:
    selecting model: DarcyForchheimer
    creating porous zone: cz_solid_63
Selecting finite volume options model type explicitPorositySource
    Source: source64
    - selecting cells using cellZone cz_solid_64
    - selected 1322 cell(s) with volume 0.00213893
Porosity region source64:
    selecting model: DarcyForchheimer
    creating porous zone: cz_solid_64
Selecting finite volume options model type explicitPorositySource
    Source: source65
    - selecting cells using cellZone cz_solid_65
    - selected 2044 cell(s) with volume 0.00214203
Porosity region source65:
    selecting model: DarcyForchheimer
    creating porous zone: cz_solid_65
Selecting finite volume options model type explicitPorositySource
    Source: source66
    - selecting cells using cellZone cz_solid_66
    - selected 1988 cell(s) with volume 0.00214333
Porosity region source66:
    selecting model: DarcyForchheimer
    creating porous zone: cz_solid_66
Selecting finite volume options model type explicitPorositySource
    Source: source67
    - selecting cells using cellZone cz_solid_67
    - selected 2037 cell(s) with volume 0.00214356
Porosity region source67:
    selecting model: DarcyForchheimer
    creating porous zone: cz_solid_67
Selecting finite volume options model type explicitPorositySource
    Source: source68
    - selecting cells using cellZone cz_solid_68
    - selected 1434 cell(s) with volume 0.00213925
Porosity region source68:
    selecting model: DarcyForchheimer
    creating porous zone: cz_solid_68
Selecting finite volume options model type explicitPorositySource
    Source: source69
    - selecting cells using cellZone cz_solid_69
    - selected 2016 cell(s) with volume 0.00214367
Porosity region source69:
    selecting model: DarcyForchheimer
    creating porous zone: cz_solid_69
Selecting finite volume options model type explicitPorositySource
    Source: source70
    - selecting cells using cellZone cz_solid_70
    - selected 2028 cell(s) with volume 0.00214494
Porosity region source70:
    selecting model: DarcyForchheimer
    creating porous zone: cz_solid_70
Selecting finite volume options model type explicitPorositySource
    Source: source71
    - selecting cells using cellZone cz_solid_71
    - selected 2093 cell(s) with volume 0.00214119
Porosity region source71:
    selecting model: DarcyForchheimer
    creating porous zone: cz_solid_71
Selecting finite volume options model type explicitPorositySource
    Source: source72
    - selecting cells using cellZone cz_solid_72
    - selected 2170 cell(s) with volume 0.00214467
Porosity region source72:
    selecting model: DarcyForchheimer
    creating porous zone: cz_solid_72
Selecting finite volume options model type explicitPorositySource
    Source: source73
    - selecting cells using cellZone cz_solid_73
    - selected 1781 cell(s) with volume 0.00214208
Porosity region source73:
    selecting model: DarcyForchheimer
    creating porous zone: cz_solid_73
Selecting finite volume options model type explicitPorositySource
    Source: source74
    - selecting cells using cellZone cz_solid_74
    - selected 1907 cell(s) with volume 0.00214476
Porosity region source74:
    selecting model: DarcyForchheimer
    creating porous zone: cz_solid_74
Selecting finite volume options model type explicitPorositySource
    Source: source75
    - selecting cells using cellZone cz_solid_75
    - selected 1988 cell(s) with volume 0.00214302
Porosity region source75:
    selecting model: DarcyForchheimer
    creating porous zone: cz_solid_75
Selecting finite volume options model type explicitPorositySource
    Source: source76
    - selecting cells using cellZone cz_solid_76
    - selected 1781 cell(s) with volume 0.00214205
Porosity region source76:
    selecting model: DarcyForchheimer
    creating porous zone: cz_solid_76
Selecting finite volume options model type explicitPorositySource
    Source: source77
    - selecting cells using cellZone cz_solid_77
    - selected 1872 cell(s) with volume 0.00213799
Porosity region source77:
    selecting model: DarcyForchheimer
    creating porous zone: cz_solid_77
Selecting finite volume options model type explicitPorositySource
    Source: source78
    - selecting cells using cellZone cz_solid_78
    - selected 1900 cell(s) with volume 0.00214459
Porosity region source78:
    selecting model: DarcyForchheimer
    creating porous zone: cz_solid_78
Selecting finite volume options model type explicitPorositySource
    Source: source79
    - selecting cells using cellZone cz_solid_79
    - selected 1925 cell(s) with volume 0.00214438
Porosity region source79:
    selecting model: DarcyForchheimer
    creating porous zone: cz_solid_79
Selecting finite volume options model type explicitPorositySource
    Source: source80
    - selecting cells using cellZone cz_solid_80
    - selected 2123 cell(s) with volume 0.00214165
Porosity region source80:
    selecting model: DarcyForchheimer
    creating porous zone: cz_solid_80
Selecting finite volume options model type explicitPorositySource
    Source: source81
    - selecting cells using cellZone cz_solid_81
    - selected 2123 cell(s) with volume 0.00214361
Porosity region source81:
    selecting model: DarcyForchheimer
    creating porous zone: cz_solid_81
Selecting finite volume options model type explicitPorositySource
    Source: source82
    - selecting cells using cellZone cz_solid_82
    - selected 2084 cell(s) with volume 0.00214156
Porosity region source82:
    selecting model: DarcyForchheimer
    creating porous zone: cz_solid_82
Selecting finite volume options model type explicitPorositySource
    Source: source83
    - selecting cells using cellZone cz_solid_83
    - selected 1976 cell(s) with volume 0.00214326
Porosity region source83:
    selecting model: DarcyForchheimer
    creating porous zone: cz_solid_83
Selecting finite volume options model type explicitPorositySource
    Source: source84
    - selecting cells using cellZone cz_solid_84
    - selected 1400 cell(s) with volume 0.00213957
Porosity region source84:
    selecting model: DarcyForchheimer
    creating porous zone: cz_solid_84
Selecting finite volume options model type explicitPorositySource
    Source: source85
    - selecting cells using cellZone cz_solid_85
    - selected 2036 cell(s) with volume 0.0021419
Porosity region source85:
    selecting model: DarcyForchheimer
    creating porous zone: cz_solid_85
Selecting finite volume options model type explicitPorositySource
    Source: source86
    - selecting cells using cellZone cz_solid_86
    - selected 2025 cell(s) with volume 0.00214281
Porosity region source86:
    selecting model: DarcyForchheimer
    creating porous zone: cz_solid_86
Selecting finite volume options model type explicitPorositySource
    Source: source87
    - selecting cells using cellZone cz_solid_87
    - selected 2069 cell(s) with volume 0.00214351
Porosity region source87:
    selecting model: DarcyForchheimer
    creating porous zone: cz_solid_87
Selecting finite volume options model type explicitPorositySource
    Source: source88
    - selecting cells using cellZone cz_solid_88
    - selected 1505 cell(s) with volume 0.00214001
Porosity region source88:
    selecting model: DarcyForchheimer
    creating porous zone: cz_solid_88
Selecting finite volume options model type explicitPorositySource
    Source: source89
    - selecting cells using cellZone cz_solid_89
    - selected 2053 cell(s) with volume 0.00214311
Porosity region source89:
    selecting model: DarcyForchheimer
    creating porous zone: cz_solid_89
Selecting finite volume options model type explicitPorositySource
    Source: source90
    - selecting cells using cellZone cz_solid_90
    - selected 2054 cell(s) with volume 0.00214454
Porosity region source90:
    selecting model: DarcyForchheimer
    creating porous zone: cz_solid_90
Selecting finite volume options model type explicitPorositySource
    Source: source91
    - selecting cells using cellZone cz_solid_91
    - selected 2116 cell(s) with volume 0.00214101
Porosity region source91:
    selecting model: DarcyForchheimer
    creating porous zone: cz_solid_91
Selecting finite volume options model type explicitPorositySource
    Source: source92
    - selecting cells using cellZone cz_solid_92
    - selected 2186 cell(s) with volume 0.00214429
Porosity region source92:
    selecting model: DarcyForchheimer
    creating porous zone: cz_solid_92
Selecting finite volume options model type explicitPorositySource
    Source: source93
    - selecting cells using cellZone cz_solid_93
    - selected 1800 cell(s) with volume 0.00214242
Porosity region source93:
    selecting model: DarcyForchheimer
    creating porous zone: cz_solid_93
Selecting finite volume options model type explicitPorositySource
    Source: source94
    - selecting cells using cellZone cz_solid_94
    - selected 1916 cell(s) with volume 0.00214488
Porosity region source94:
    selecting model: DarcyForchheimer
    creating porous zone: cz_solid_94
Selecting finite volume options model type explicitPorositySource
    Source: source95
    - selecting cells using cellZone cz_solid_95
    - selected 2014 cell(s) with volume 0.00214278
Porosity region source95:
    selecting model: DarcyForchheimer
    creating porous zone: cz_solid_95
Selecting finite volume options model type explicitPorositySource
    Source: source96
    - selecting cells using cellZone cz_solid_96
    - selected 1800 cell(s) with volume 0.00214183
Porosity region source96:
    selecting model: DarcyForchheimer
    creating porous zone: cz_solid_96
Selecting finite volume options model type explicitPorositySource
    Source: source97
    - selecting cells using cellZone cz_solid_97
    - selected 1902 cell(s) with volume 0.00213734
Porosity region source97:
    selecting model: DarcyForchheimer
    creating porous zone: cz_solid_97
Selecting finite volume options model type explicitPorositySource
    Source: source98
    - selecting cells using cellZone cz_solid_98
    - selected 1930 cell(s) with volume 0.00214451
Porosity region source98:
    selecting model: DarcyForchheimer
    creating porous zone: cz_solid_98
Selecting finite volume options model type explicitPorositySource
    Source: source99
    - selecting cells using cellZone cz_solid_99
    - selected 1937 cell(s) with volume 0.00214445
Porosity region source99:
    selecting model: DarcyForchheimer
    creating porous zone: cz_solid_99

Starting time loop

forces porousforces:
--> FOAM Warning : 
    From function Foam::labelHashSet Foam::polyBoundaryMesh::patchSet(const Foam::UList<Foam::wordRe>&, bool, bool) const
    in file meshes/polyMesh/polyBoundaryMesh/polyBoundaryMesh.C at line 798
    Cannot find any patch or group names matching solid_to_fluid
    Including porosity effects


surfaceFieldValue massFlowAtFilter_0:
    total faces  = 1654
    total area   = 0.10167




surfaceFieldValue massFlowAtFilter_1:
    total faces  = 1722
    total area   = 0.101652




surfaceFieldValue massFlowAtFilter_2:
    total faces  = 1616
    total area   = 0.101678




surfaceFieldValue massFlowAtFilter_3:
    total faces  = 1674
    total area   = 0.101748




surfaceFieldValue massFlowAtFilter_4:
    total faces  = 1414
    total area   = 0.101633




surfaceFieldValue massFlowAtFilter_5:
    total faces  = 1618
    total area   = 0.101692




surfaceFieldValue massFlowAtFilter_6:
    total faces  = 1676
    total area   = 0.101741




surfaceFieldValue massFlowAtFilter_7:
    total faces  = 1641
    total area   = 0.101663




surfaceFieldValue massFlowAtFilter_8:
    total faces  = 1414
    total area   = 0.101649




surfaceFieldValue massFlowAtFilter_9:
    total faces  = 1700
    total area   = 0.101771




surfaceFieldValue massFlowAtFilter_10:
    total faces  = 1732
    total area   = 0.101663




surfaceFieldValue massFlowAtFilter_11:
    total faces  = 1724
    total area   = 0.10163




surfaceFieldValue massFlowAtFilter_12:
    total faces  = 1722
    total area   = 0.101674




surfaceFieldValue massFlowAtFilter_13:
    total faces  = 1610
    total area   = 0.101716




surfaceFieldValue massFlowAtFilter_14:
    total faces  = 1729
    total area   = 0.101701




surfaceFieldValue massFlowAtFilter_15:
    total faces  = 1648
    total area   = 0.101659




surfaceFieldValue massFlowAtFilter_16:
    total faces  = 1604
    total area   = 0.101698




surfaceFieldValue massFlowAtFilter_17:
    total faces  = 1552
    total area   = 0.10166




surfaceFieldValue massFlowAtFilter_18:
    total faces  = 1725
    total area   = 0.101712




surfaceFieldValue massFlowAtFilter_19:
    total faces  = 1646
    total area   = 0.101725




surfaceFieldValue massFlowAtFilter_20:
    total faces  = 1696
    total area   = 0.10165




surfaceFieldValue massFlowAtFilter_21:
    total faces  = 1768
    total area   = 0.101624




surfaceFieldValue massFlowAtFilter_22:
    total faces  = 1658
    total area   = 0.101645




surfaceFieldValue massFlowAtFilter_23:
    total faces  = 1718
    total area   = 0.101655




surfaceFieldValue massFlowAtFilter_24:
    total faces  = 1460
    total area   = 0.101585




surfaceFieldValue massFlowAtFilter_25:
    total faces  = 1660
    total area   = 0.101655




surfaceFieldValue massFlowAtFilter_26:
    total faces  = 1720
    total area   = 0.101693




surfaceFieldValue massFlowAtFilter_27:
    total faces  = 1680
    total area   = 0.101624




surfaceFieldValue massFlowAtFilter_28:
    total faces  = 1460
    total area   = 0.101599




surfaceFieldValue massFlowAtFilter_29:
    total faces  = 1720
    total area   = 0.101707




surfaceFieldValue massFlowAtFilter_30:
    total faces  = 1784
    total area   = 0.101633




surfaceFieldValue massFlowAtFilter_31:
    total faces  = 1768
    total area   = 0.101641




surfaceFieldValue massFlowAtFilter_32:
    total faces  = 1766
    total area   = 0.101615




surfaceFieldValue massFlowAtFilter_33:
    total faces  = 1636
    total area   = 0.101691




surfaceFieldValue massFlowAtFilter_34:
    total faces  = 1782
    total area   = 0.10163




surfaceFieldValue massFlowAtFilter_35:
    total faces  = 1698
    total area   = 0.101616




surfaceFieldValue massFlowAtFilter_36:
    total faces  = 1636
    total area   = 0.101699




surfaceFieldValue massFlowAtFilter_37:
    total faces  = 1600
    total area   = 0.101618




surfaceFieldValue massFlowAtFilter_38:
    total faces  = 1778
    total area   = 0.10167




surfaceFieldValue massFlowAtFilter_39:
    total faces  = 1690
    total area   = 0.101663




surfaceFieldValue massFlowAtFilter_40:
    total faces  = 1654
    total area   = 0.101695




surfaceFieldValue massFlowAtFilter_41:
    total faces  = 1724
    total area   = 0.101678




surfaceFieldValue massFlowAtFilter_42:
    total faces  = 1616
    total area   = 0.101693




surfaceFieldValue massFlowAtFilter_43:
    total faces  = 1674
    total area   = 0.101779




surfaceFieldValue massFlowAtFilter_44:
    total faces  = 1414
    total area   = 0.101639




surfaceFieldValue massFlowAtFilter_45:
    total faces  = 1618
    total area   = 0.101698




surfaceFieldValue massFlowAtFilter_46:
    total faces  = 1676
    total area   = 0.101785




surfaceFieldValue massFlowAtFilter_47:
    total faces  = 1636
    total area   = 0.101694




surfaceFieldValue massFlowAtFilter_48:
    total faces  = 1414
    total area   = 0.101658




surfaceFieldValue massFlowAtFilter_49:
    total faces  = 1676
    total area   = 0.101771




surfaceFieldValue massFlowAtFilter_50:
    total faces  = 1740
    total area   = 0.101712




surfaceFieldValue massFlowAtFilter_51:
    total faces  = 1724
    total area   = 0.101701




surfaceFieldValue massFlowAtFilter_52:
    total faces  = 1722
    total area   = 0.101705




surfaceFieldValue massFlowAtFilter_53:
    total faces  = 1610
    total area   = 0.101754




surfaceFieldValue massFlowAtFilter_54:
    total faces  = 1736
    total area   = 0.10172




surfaceFieldValue massFlowAtFilter_55:
    total faces  = 1648
    total area   = 0.101694




surfaceFieldValue massFlowAtFilter_56:
    total faces  = 1604
    total area   = 0.101736




surfaceFieldValue massFlowAtFilter_57:
    total faces  = 1536
    total area   = 0.101678




surfaceFieldValue massFlowAtFilter_58:
    total faces  = 1732
    total area   = 0.101754




surfaceFieldValue massFlowAtFilter_59:
    total faces  = 1646
    total area   = 0.101734




surfaceFieldValue massFlowAtFilter_60:
    total faces  = 1654
    total area   = 0.1017




surfaceFieldValue massFlowAtFilter_61:
    total faces  = 1724
    total area   = 0.101692




surfaceFieldValue massFlowAtFilter_62:
    total faces  = 1616
    total area   = 0.101698




surfaceFieldValue massFlowAtFilter_63:
    total faces  = 1674
    total area   = 0.101788




surfaceFieldValue massFlowAtFilter_64:
    total faces  = 1400
    total area   = 0.101638




surfaceFieldValue massFlowAtFilter_65:
    total faces  = 1618
    total area   = 0.101708




surfaceFieldValue massFlowAtFilter_66:
    total faces  = 1676
    total area   = 0.101777




surfaceFieldValue massFlowAtFilter_67:
    total faces  = 1639
    total area   = 0.101713




surfaceFieldValue massFlowAtFilter_68:
    total faces  = 1400
    total area   = 0.101647




surfaceFieldValue massFlowAtFilter_69:
    total faces  = 1688
    total area   = 0.101793




surfaceFieldValue massFlowAtFilter_70:
    total faces  = 1736
    total area   = 0.101726




surfaceFieldValue massFlowAtFilter_71:
    total faces  = 1724
    total area   = 0.1017




surfaceFieldValue massFlowAtFilter_72:
    total faces  = 1722
    total area   = 0.101712




surfaceFieldValue massFlowAtFilter_73:
    total faces  = 1595
    total area   = 0.101765




surfaceFieldValue massFlowAtFilter_74:
    total faces  = 1734
    total area   = 0.101708




surfaceFieldValue massFlowAtFilter_75:
    total faces  = 1654
    total area   = 0.101721




surfaceFieldValue massFlowAtFilter_76:
    total faces  = 1595
    total area   = 0.101754




surfaceFieldValue massFlowAtFilter_77:
    total faces  = 1526
    total area   = 0.101676




surfaceFieldValue massFlowAtFilter_78:
    total faces  = 1730
    total area   = 0.101778




surfaceFieldValue massFlowAtFilter_79:
    total faces  = 1646
    total area   = 0.101742




surfaceFieldValue massFlowAtFilter_80:
    total faces  = 1661
    total area   = 0.101697




surfaceFieldValue massFlowAtFilter_81:
    total faces  = 1731
    total area   = 0.101657




surfaceFieldValue massFlowAtFilter_82:
    total faces  = 1626
    total area   = 0.101693




surfaceFieldValue massFlowAtFilter_83:
    total faces  = 1684
    total area   = 0.101721




surfaceFieldValue massFlowAtFilter_84:
    total faces  = 1446
    total area   = 0.101618




surfaceFieldValue massFlowAtFilter_85:
    total faces  = 1624
    total area   = 0.101701




surfaceFieldValue massFlowAtFilter_86:
    total faces  = 1686
    total area   = 0.101684




surfaceFieldValue massFlowAtFilter_87:
    total faces  = 1651
    total area   = 0.101701




surfaceFieldValue massFlowAtFilter_88:
    total faces  = 1446
    total area   = 0.101636




surfaceFieldValue massFlowAtFilter_89:
    total faces  = 1698
    total area   = 0.101707




surfaceFieldValue massFlowAtFilter_90:
    total faces  = 1742
    total area   = 0.101698




surfaceFieldValue massFlowAtFilter_91:
    total faces  = 1731
    total area   = 0.101644




surfaceFieldValue massFlowAtFilter_92:
    total faces  = 1729
    total area   = 0.101679




surfaceFieldValue massFlowAtFilter_93:
    total faces  = 1610
    total area   = 0.10173




surfaceFieldValue massFlowAtFilter_94:
    total faces  = 1741
    total area   = 0.101714




surfaceFieldValue massFlowAtFilter_95:
    total faces  = 1669
    total area   = 0.101687




surfaceFieldValue massFlowAtFilter_96:
    total faces  = 1610
    total area   = 0.101715




surfaceFieldValue massFlowAtFilter_97:
    total faces  = 1529
    total area   = 0.101665




surfaceFieldValue massFlowAtFilter_98:
    total faces  = 1737
    total area   = 0.101777




surfaceFieldValue massFlowAtFilter_99:
    total faces  = 1658
    total area   = 0.101724


Time = 1

DILUPBiCG:  Solving for Ux, Initial residual = 1, Final residual = 4.67968e-06, No Iterations 5
DILUPBiCG:  Solving for Uy, Initial residual = 1, Final residual = 3.11975e-06, No Iterations 7
DILUPBiCG:  Solving for Uz, Initial residual = 1, Final residual = 2.98611e-06, No Iterations 6
DICPCG:  Solving for p, Initial residual = 1, Final residual = 0.0944454, No Iterations 314
DICPCG:  Solving for p, Initial residual = 0.00366879, Final residual = 0.000266347, No Iterations 4
DICPCG:  Solving for p, Initial residual = 0.000518227, Final residual = 5.08327e-05, No Iterations 33
time step continuity errors : sum local = 0.0649462, global = -0.000411216, cumulative = -0.000411216
DILUPBiCG:  Solving for epsilon, Initial residual = 0.0486448, Final residual = 1.39731e-06, No Iterations 4
DILUPBiCG:  Solving for k, Initial residual = 1, Final residual = 8.88771e-07, No Iterations 6
ExecutionTime = 5.64 s  ClockTime = 6 s

Time = 2

DILUPBiCG:  Solving for Ux, Initial residual = 0.000147164, Final residual = 3.96129e-06, No Iterations 2
DILUPBiCG:  Solving for Uy, Initial residual = 6.50299e-05, Final residual = 3.22216e-07, No Iterations 3
DILUPBiCG:  Solving for Uz, Initial residual = 0.000136775, Final residual = 2.74313e-06, No Iterations 2
DICPCG:  Solving for p, Initial residual = 0.00939068, Final residual = 0.000935439, No Iterations 123
DICPCG:  Solving for p, Initial residual = 0.00555269, Final residual = 0.000551361, No Iterations 10
DICPCG:  Solving for p, Initial residual = 0.000909118, Final residual = 8.37238e-05, No Iterations 283
time step continuity errors : sum local = 0.0291086, global = 0.000202074, cumulative = -0.000209142
DILUPBiCG:  Solving for epsilon, Initial residual = 0.0135783, Final residual = 8.43588e-07, No Iterations 4
DILUPBiCG:  Solving for k, Initial residual = 0.51757, Final residual = 3.80486e-08, No Iterations 7
ExecutionTime = 9.7 s  ClockTime = 10 s

Time = 3

DILUPBiCG:  Solving for Ux, Initial residual = 2.18538e-05, Final residual = 3.78926e-06, No Iterations 1
DILUPBiCG:  Solving for Uy, Initial residual = 1.35633e-05, Final residual = 2.63339e-06, No Iterations 1
DILUPBiCG:  Solving for Uz, Initial residual = 3.3393e-05, Final residual = 7.89415e-07, No Iterations 2
DICPCG:  Solving for p, Initial residual = 0.0169934, Final residual = 0.00166833, No Iterations 292
DICPCG:  Solving for p, Initial residual = 0.00742399, Final residual = 0.000631875, No Iterations 4
DICPCG:  Solving for p, Initial residual = 0.00101947, Final residual = 9.74461e-05, No Iterations 48
time step continuity errors : sum local = 0.0657708, global = 0.000496924, cumulative = 0.000287782
DILUPBiCG:  Solving for epsilon, Initial residual = 0.0180082, Final residual = 1.08272e-06, No Iterations 4
DILUPBiCG:  Solving for k, Initial residual = 0.25787, Final residual = 5.24541e-07, No Iterations 6
ExecutionTime = 13.15 s  ClockTime = 14 s

Time = 4

DILUPBiCG:  Solving for Ux, Initial residual = 6.116e-06, Final residual = 6.116e-06, No Iterations 0
DILUPBiCG:  Solving for Uy, Initial residual = 2.28118e-06, Final residual = 2.28118e-06, No Iterations 0
DILUPBiCG:  Solving for Uz, Initial residual = 7.8548e-06, Final residual = 7.8548e-06, No Iterations 0
DICPCG:  Solving for p, Initial residual = 0.0722803, Final residual = 0.00704559, No Iterations 301
DICPCG:  Solving for p, Initial residual = 0.00531392, Final residual = 0.000435285, No Iterations 4
DICPCG:  Solving for p, Initial residual = 0.000707041, Final residual = 7.00744e-05, No Iterations 44
time step continuity errors : sum local = 0.0443969, global = 3.94044e-05, cumulative = 0.000327187
DILUPBiCG:  Solving for epsilon, Initial residual = 0.0172304, Final residual = 5.81272e-06, No Iterations 3
DILUPBiCG:  Solving for k, Initial residual = 0.152315, Final residual = 6.81788e-07, No Iterations 5
ExecutionTime = 16.52 s  ClockTime = 17 s

Time = 5

DILUPBiCG:  Solving for Ux, Initial residual = 1.79057e-05, Final residual = 3.6814e-06, No Iterations 1
DILUPBiCG:  Solving for Uy, Initial residual = 9.97742e-06, Final residual = 9.97742e-06, No Iterations 0
DILUPBiCG:  Solving for Uz, Initial residual = 1.63256e-05, Final residual = 4.46712e-06, No Iterations 1
DICPCG:  Solving for p, Initial residual = 0.0195924, Final residual = 0.00192606, No Iterations 48
DICPCG:  Solving for p, Initial residual = 0.00659092, Final residual = 0.000635596, No Iterations 259
DICPCG:  Solving for p, Initial residual = 0.00207466, Final residual = 0.00019869, No Iterations 7
time step continuity errors : sum local = 0.079614, global = 0.000160333, cumulative = 0.00048752
DILUPBiCG:  Solving for epsilon, Initial residual = 0.0148492, Final residual = 4.33201e-06, No Iterations 3
DILUPBiCG:  Solving for k, Initial residual = 0.109465, Final residual = 5.91929e-07, No Iterations 5
ExecutionTime = 19.71 s  ClockTime = 20 s

Time = 6

DILUPBiCG:  Solving for Ux, Initial residual = 2.44248e-05, Final residual = 5.6476e-06, No Iterations 1
DILUPBiCG:  Solving for Uy, Initial residual = 1.46211e-05, Final residual = 2.98343e-06, No Iterations 1
DILUPBiCG:  Solving for Uz, Initial residual = 1.86641e-05, Final residual = 5.92345e-06, No Iterations 1
DICPCG:  Solving for p, Initial residual = 0.0227855, Final residual = 0.00225842, No Iterations 288
DICPCG:  Solving for p, Initial residual = 0.00804965, Final residual = 0.000792897, No Iterations 6
DICPCG:  Solving for p, Initial residual = 0.00118954, Final residual = 0.000118384, No Iterations 56
time step continuity errors : sum local = 0.0598481, global = -0.000581745, cumulative = -9.4225e-05
DILUPBiCG:  Solving for epsilon, Initial residual = 0.0138121, Final residual = 4.63311e-06, No Iterations 3
DILUPBiCG:  Solving for k, Initial residual = 0.0932145, Final residual = 8.89496e-07, No Iterations 5
ExecutionTime = 23.19 s  ClockTime = 24 s

Time = 7

DILUPBiCG:  Solving for Ux, Initial residual = 1.72442e-05, Final residual = 8.21784e-07, No Iterations 2
DILUPBiCG:  Solving for Uy, Initial residual = 4.74478e-06, Final residual = 4.74478e-06, No Iterations 0
DILUPBiCG:  Solving for Uz, Initial residual = 9.58139e-06, Final residual = 9.58139e-06, No Iterations 0
DICPCG:  Solving for p, Initial residual = 0.0812264, Final residual = 0.00801286, No Iterations 288
DICPCG:  Solving for p, Initial residual = 0.00485121, Final residual = 0.000476923, No Iterations 4
DICPCG:  Solving for p, Initial residual = 0.000690563, Final residual = 6.78427e-05, No Iterations 50
time step continuity errors : sum local = 0.0368915, global = -7.34152e-05, cumulative = -0.00016764
DILUPBiCG:  Solving for epsilon, Initial residual = 0.0127103, Final residual = 7.50079e-07, No Iterations 4
DILUPBiCG:  Solving for k, Initial residual = 0.076913, Final residual = 4.34914e-08, No Iterations 6
ExecutionTime = 26.57 s  ClockTime = 27 s

Time = 8

DILUPBiCG:  Solving for Ux, Initial residual = 2.09704e-05, Final residual = 4.10215e-06, No Iterations 1
DILUPBiCG:  Solving for Uy, Initial residual = 1.23155e-05, Final residual = 2.50635e-06, No Iterations 1
DILUPBiCG:  Solving for Uz, Initial residual = 1.87942e-05, Final residual = 4.35981e-06, No Iterations 1
DICPCG:  Solving for p, Initial residual = 0.0282288, Final residual = 0.00277226, No Iterations 65
DICPCG:  Solving for p, Initial residual = 0.00851796, Final residual = 0.000839859, No Iterations 76
DICPCG:  Solving for p, Initial residual = 0.00218935, Final residual = 0.000211183, No Iterations 241
time step continuity errors : sum local = 0.0292412, global = -0.000344922, cumulative = -0.000512562
DILUPBiCG:  Solving for epsilon, Initial residual = 0.0127881, Final residual = 7.07684e-07, No Iterations 4
DILUPBiCG:  Solving for k, Initial residual = 0.0642877, Final residual = 3.61138e-08, No Iterations 6
ExecutionTime = 30.3 s  ClockTime = 31 s

Time = 9

DILUPBiCG:  Solving for Ux, Initial residual = 7.17186e-06, Final residual = 7.17186e-06, No Iterations 0
DILUPBiCG:  Solving for Uy, Initial residual = 7.14979e-06, Final residual = 7.14979e-06, No Iterations 0
DILUPBiCG:  Solving for Uz, Initial residual = 8.93532e-06, Final residual = 8.93532e-06, No Iterations 0
DICPCG:  Solving for p, Initial residual = 0.0217257, Final residual = 0.00216923, No Iterations 98
DICPCG:  Solving for p, Initial residual = 0.0088078, Final residual = 0.000847683, No Iterations 215
DICPCG:  Solving for p, Initial residual = 0.0195732, Final residual = 0.00183728, No Iterations 10
time step continuity errors : sum local = 0.0510581, global = 0.000792547, cumulative = 0.000279985
DILUPBiCG:  Solving for epsilon, Initial residual = 0.0119564, Final residual = 6.20924e-06, No Iterations 3
DILUPBiCG:  Solving for k, Initial residual = 0.0569467, Final residual = 6.49387e-07, No Iterations 5
ExecutionTime = 33.48 s  ClockTime = 34 s

Time = 10

DILUPBiCG:  Solving for Ux, Initial residual = 4.35423e-06, Final residual = 4.35423e-06, No Iterations 0
DILUPBiCG:  Solving for Uy, Initial residual = 4.32639e-06, Final residual = 4.32639e-06, No Iterations 0
DILUPBiCG:  Solving for Uz, Initial residual = 5.44617e-06, Final residual = 5.44617e-06, No Iterations 0
DICPCG:  Solving for p, Initial residual = 0.0192409, Final residual = 0.00186454, No Iterations 289
DICPCG:  Solving for p, Initial residual = 0.00972732, Final residual = 0.000967132, No Iterations 5
DICPCG:  Solving for p, Initial residual = 0.00146417, Final residual = 0.000141324, No Iterations 57
time step continuity errors : sum local = 0.014645, global = 0.000192035, cumulative = 0.00047202
DILUPBiCG:  Solving for epsilon, Initial residual = 0.011284, Final residual = 5.18438e-06, No Iterations 3
DILUPBiCG:  Solving for k, Initial residual = 0.0517576, Final residual = 4.17813e-07, No Iterations 5
ExecutionTime = 36.83 s  ClockTime = 37 s

Time = 11

DILUPBiCG:  Solving for Ux, Initial residual = 6.28305e-06, Final residual = 6.28305e-06, No Iterations 0
DILUPBiCG:  Solving for Uy, Initial residual = 1.60159e-06, Final residual = 1.60159e-06, No Iterations 0
DILUPBiCG:  Solving for Uz, Initial residual = 5.65676e-06, Final residual = 5.65676e-06, No Iterations 0
DICPCG:  Solving for p, Initial residual = 0.0315432, Final residual = 0.00298489, No Iterations 290
DICPCG:  Solving for p, Initial residual = 0.00540194, Final residual = 0.000531502, No Iterations 4
DICPCG:  Solving for p, Initial residual = 0.00077059, Final residual = 7.26913e-05, No Iterations 58
time step continuity errors : sum local = 0.00917835, global = 0.00014322, cumulative = 0.00061524
DILUPBiCG:  Solving for epsilon, Initial residual = 0.0106037, Final residual = 4.10517e-06, No Iterations 3
DILUPBiCG:  Solving for k, Initial residual = 0.0477216, Final residual = 3.22737e-07, No Iterations 5
ExecutionTime = 40.21 s  ClockTime = 41 s

Time = 12

DILUPBiCG:  Solving for Ux, Initial residual = 7.77646e-06, Final residual = 7.77646e-06, No Iterations 0
DILUPBiCG:  Solving for Uy, Initial residual = 1.61907e-06, Final residual = 1.61907e-06, No Iterations 0
DILUPBiCG:  Solving for Uz, Initial residual = 6.3995e-06, Final residual = 6.3995e-06, No Iterations 0
DICPCG:  Solving for p, Initial residual = 0.0551563, Final residual = 0.00523487, No Iterations 286
DICPCG:  Solving for p, Initial residual = 0.00407106, Final residual = 0.000402058, No Iterations 16
DICPCG:  Solving for p, Initial residual = 0.000754084, Final residual = 7.07754e-05, No Iterations 46
time step continuity errors : sum local = 0.00738066, global = 8.25578e-06, cumulative = 0.000623496
DILUPBiCG:  Solving for epsilon, Initial residual = 0.0100234, Final residual = 3.1523e-06, No Iterations 3
DILUPBiCG:  Solving for k, Initial residual = 0.0445485, Final residual = 2.9584e-07, No Iterations 5
ExecutionTime = 43.58 s  ClockTime = 44 s

Time = 13

DILUPBiCG:  Solving for Ux, Initial residual = 7.43343e-06, Final residual = 7.43343e-06, No Iterations 0
DILUPBiCG:  Solving for Uy, Initial residual = 2.63432e-06, Final residual = 2.63432e-06, No Iterations 0
DILUPBiCG:  Solving for Uz, Initial residual = 6.44834e-06, Final residual = 6.44834e-06, No Iterations 0
DICPCG:  Solving for p, Initial residual = 0.026969, Final residual = 0.00267767, No Iterations 66
DICPCG:  Solving for p, Initial residual = 0.00847522, Final residual = 0.000846916, No Iterations 71
DICPCG:  Solving for p, Initial residual = 0.00229416, Final residual = 0.000227973, No Iterations 242
time step continuity errors : sum local = 0.0104034, global = 4.97065e-05, cumulative = 0.000673202
DILUPBiCG:  Solving for epsilon, Initial residual = 0.00963936, Final residual = 2.6683e-06, No Iterations 3
DILUPBiCG:  Solving for k, Initial residual = 0.0419538, Final residual = 4.93213e-07, No Iterations 5
ExecutionTime = 47.13 s  ClockTime = 48 s

Time = 14

DILUPBiCG:  Solving for Ux, Initial residual = 5.53115e-06, Final residual = 5.53115e-06, No Iterations 0
DILUPBiCG:  Solving for Uy, Initial residual = 2.87966e-06, Final residual = 2.87966e-06, No Iterations 0
DILUPBiCG:  Solving for Uz, Initial residual = 5.18388e-06, Final residual = 5.18388e-06, No Iterations 0
DICPCG:  Solving for p, Initial residual = 0.0222118, Final residual = 0.00216524, No Iterations 96
DICPCG:  Solving for p, Initial residual = 0.0085109, Final residual = 0.000787007, No Iterations 255
DICPCG:  Solving for p, Initial residual = 0.0232013, Final residual = 0.00231803, No Iterations 11
time step continuity errors : sum local = 0.0178761, global = 6.28473e-05, cumulative = 0.000736049
DILUPBiCG:  Solving for epsilon, Initial residual = 0.00942408, Final residual = 5.56416e-06, No Iterations 3
DILUPBiCG:  Solving for k, Initial residual = 0.0396333, Final residual = 1.87642e-08, No Iterations 6
ExecutionTime = 50.59 s  ClockTime = 51 s

Time = 15

DILUPBiCG:  Solving for Ux, Initial residual = 3.51868e-06, Final residual = 3.51868e-06, No Iterations 0
DILUPBiCG:  Solving for Uy, Initial residual = 2.23185e-06, Final residual = 2.23185e-06, No Iterations 0
DILUPBiCG:  Solving for Uz, Initial residual = 3.5991e-06, Final residual = 3.5991e-06, No Iterations 0
DICPCG:  Solving for p, Initial residual = 0.0218058, Final residual = 0.00217026, No Iterations 288
DICPCG:  Solving for p, Initial residual = 0.0115589, Final residual = 0.00111019, No Iterations 29
DICPCG:  Solving for p, Initial residual = 0.00238663, Final residual = 0.000231175, No Iterations 48
time step continuity errors : sum local = 0.0083282, global = -3.92391e-05, cumulative = 0.00069681
DILUPBiCG:  Solving for epsilon, Initial residual = 0.0093822, Final residual = 5.13222e-06, No Iterations 3
DILUPBiCG:  Solving for k, Initial residual = 0.0374985, Final residual = 5.17144e-07, No Iterations 5
ExecutionTime = 54.08 s  ClockTime = 55 s

Time = 16

DILUPBiCG:  Solving for Ux, Initial residual = 3.10645e-06, Final residual = 3.10645e-06, No Iterations 0
DILUPBiCG:  Solving for Uy, Initial residual = 1.14752e-06, Final residual = 1.14752e-06, No Iterations 0
DILUPBiCG:  Solving for Uz, Initial residual = 3.12242e-06, Final residual = 3.12242e-06, No Iterations 0
DICPCG:  Solving for p, Initial residual = 0.0319068, Final residual = 0.00302353, No Iterations 292
DICPCG:  Solving for p, Initial residual = 0.00593694, Final residual = 0.000569495, No Iterations 7
DICPCG:  Solving for p, Initial residual = 0.000862852, Final residual = 7.96307e-05, No Iterations 57
time step continuity errors : sum local = 0.00424957, global = -7.52872e-05, cumulative = 0.000621523
DILUPBiCG:  Solving for epsilon, Initial residual = 0.0093159, Final residual = 1.40615e-06, No Iterations 4
DILUPBiCG:  Solving for k, Initial residual = 0.0354558, Final residual = 3.51441e-07, No Iterations 5
ExecutionTime = 57.54 s  ClockTime = 58 s

Time = 17

DILUPBiCG:  Solving for Ux, Initial residual = 3.37154e-06, Final residual = 3.37154e-06, No Iterations 0
DILUPBiCG:  Solving for Uy, Initial residual = 6.13406e-07, Final residual = 6.13406e-07, No Iterations 0
DILUPBiCG:  Solving for Uz, Initial residual = 3.30916e-06, Final residual = 3.30916e-06, No Iterations 0
DICPCG:  Solving for p, Initial residual = 0.0589043, Final residual = 0.00544998, No Iterations 288
DICPCG:  Solving for p, Initial residual = 0.0038387, Final residual = 0.000376141, No Iterations 11
DICPCG:  Solving for p, Initial residual = 0.000626513, Final residual = 5.75271e-05, No Iterations 52
time step continuity errors : sum local = 0.00294786, global = -3.21295e-05, cumulative = 0.000589394
DILUPBiCG:  Solving for epsilon, Initial residual = 0.00913458, Final residual = 9.20838e-06, No Iterations 3
DILUPBiCG:  Solving for k, Initial residual = 0.0335308, Final residual = 3.09012e-07, No Iterations 5
ExecutionTime = 60.95 s  ClockTime = 61 s

Time = 18

DILUPBiCG:  Solving for Ux, Initial residual = 3.17846e-06, Final residual = 3.17846e-06, No Iterations 0
DILUPBiCG:  Solving for Uy, Initial residual = 1.10223e-06, Final residual = 1.10223e-06, No Iterations 0
DILUPBiCG:  Solving for Uz, Initial residual = 3.36181e-06, Final residual = 3.36181e-06, No Iterations 0
DICPCG:  Solving for p, Initial residual = 0.0225373, Final residual = 0.00225334, No Iterations 48
DICPCG:  Solving for p, Initial residual = 0.0060292, Final residual = 0.000572836, No Iterations 264
DICPCG:  Solving for p, Initial residual = 0.00188983, Final residual = 0.000188727, No Iterations 9
time step continuity errors : sum local = 0.0068422, global = -3.70417e-05, cumulative = 0.000552352
DILUPBiCG:  Solving for epsilon, Initial residual = 0.00891487, Final residual = 6.54609e-06, No Iterations 3
DILUPBiCG:  Solving for k, Initial residual = 0.0317774, Final residual = 4.39337e-07, No Iterations 5
ExecutionTime = 64.11 s  ClockTime = 65 s

Time = 19

DILUPBiCG:  Solving for Ux, Initial residual = 2.60786e-06, Final residual = 2.60786e-06, No Iterations 0
DILUPBiCG:  Solving for Uy, Initial residual = 1.28636e-06, Final residual = 1.28636e-06, No Iterations 0
DILUPBiCG:  Solving for Uz, Initial residual = 3.09088e-06, Final residual = 3.09088e-06, No Iterations 0
DICPCG:  Solving for p, Initial residual = 0.0175441, Final residual = 0.00170321, No Iterations 92
DICPCG:  Solving for p, Initial residual = 0.00604222, Final residual = 0.000595761, No Iterations 256
DICPCG:  Solving for p, Initial residual = 0.00303655, Final residual = 0.000303048, No Iterations 35
time step continuity errors : sum local = 0.00508426, global = -3.96917e-05, cumulative = 0.00051266
DILUPBiCG:  Solving for epsilon, Initial residual = 0.00869974, Final residual = 3.78547e-06, No Iterations 3
DILUPBiCG:  Solving for k, Initial residual = 0.0302284, Final residual = 8.26151e-07, No Iterations 4
ExecutionTime = 67.68 s  ClockTime = 68 s

Time = 20

DILUPBiCG:  Solving for Ux, Initial residual = 2.12578e-06, Final residual = 2.12578e-06, No Iterations 0
DILUPBiCG:  Solving for Uy, Initial residual = 1.12291e-06, Final residual = 1.12291e-06, No Iterations 0
DILUPBiCG:  Solving for Uz, Initial residual = 2.71179e-06, Final residual = 2.71179e-06, No Iterations 0
DICPCG:  Solving for p, Initial residual = 0.0160473, Final residual = 0.00157962, No Iterations 288
DICPCG:  Solving for p, Initial residual = 0.0330555, Final residual = 0.00319398, No Iterations 32
DICPCG:  Solving for p, Initial residual = 0.00732564, Final residual = 0.000717494, No Iterations 43
time step continuity errors : sum local = 0.00356643, global = 2.87551e-05, cumulative = 0.000541415
DILUPBiCG:  Solving for epsilon, Initial residual = 0.00851874, Final residual = 2.9016e-06, No Iterations 3
DILUPBiCG:  Solving for k, Initial residual = 0.0288784, Final residual = 1.39483e-07, No Iterations 5
ExecutionTime = 71.13 s  ClockTime = 72 s

forces porousforces write:
    sum of forces:
        pressure : (0 0 0)
        viscous  : (0 0 0)
        porous   : (131379 -3.28425e-13 113554)
    sum of moments:
        pressure : (0 0 0)
        viscous  : (0 0 0)
        porous   : (102653 9431.82 -114290)

volFieldValue volFieldValue_0 write:
    volIntegrate(cz_solid_0) of U = (2.72206e-09 -7.31534e-09 -6.26924e-09)

surfaceFieldValue massFlowAtFilter_0 write:
    sum(fz_solid_0) of phi = 8.34463e-05

volFieldValue volFieldValue_1 write:
    volIntegrate(cz_solid_1) of U = (6.48881e-10 -6.41297e-09 -5.66861e-09)

surfaceFieldValue massFlowAtFilter_1 write:
    sum(fz_solid_1) of phi = 4.99636e-05

volFieldValue volFieldValue_2 write:
    volIntegrate(cz_solid_2) of U = (-1.00247e-09 -6.33747e-09 -4.75633e-09)

surfaceFieldValue massFlowAtFilter_2 write:
    sum(fz_solid_2) of phi = -7.13861e-05

volFieldValue volFieldValue_3 write:
    volIntegrate(cz_solid_3) of U = (-2.28865e-09 -6.01804e-09 -3.72199e-09)

surfaceFieldValue massFlowAtFilter_3 write:
    sum(fz_solid_3) of phi = -2.95244e-08

volFieldValue volFieldValue_4 write:
    volIntegrate(cz_solid_4) of U = (-3.44768e-09 -5.53867e-09 -2.46653e-09)

surfaceFieldValue massFlowAtFilter_4 write:
    sum(fz_solid_4) of phi = 7.95207e-06

volFieldValue volFieldValue_5 write:
    volIntegrate(cz_solid_5) of U = (-4.41153e-09 -5.51245e-09 -1.23099e-09)

surfaceFieldValue massFlowAtFilter_5 write:
    sum(fz_solid_5) of phi = -0.000114249

volFieldValue volFieldValue_6 write:
    volIntegrate(cz_solid_6) of U = (-5.31732e-09 -5.86735e-09 3.32241e-10)

surfaceFieldValue massFlowAtFilter_6 write:
    sum(fz_solid_6) of phi = -7.51057e-05

volFieldValue volFieldValue_7 write:
    volIntegrate(cz_solid_7) of U = (-5.78089e-09 -6.10677e-09 2.32409e-09)

surfaceFieldValue massFlowAtFilter_7 write:
    sum(fz_solid_7) of phi = 3.19452e-05

volFieldValue volFieldValue_8 write:
    volIntegrate(cz_solid_8) of U = (-5.5858e-09 -6.53348e-09 4.50432e-09)

surfaceFieldValue massFlowAtFilter_8 write:
    sum(fz_solid_8) of phi = -2.38169e-05

volFieldValue volFieldValue_9 write:
    volIntegrate(cz_solid_9) of U = (-4.48768e-09 -7.14417e-09 6.8637e-09)

surfaceFieldValue massFlowAtFilter_9 write:
    sum(fz_solid_9) of phi = 1.00929e-05

volFieldValue volFieldValue_10 write:
    volIntegrate(cz_solid_10) of U = (-2.45075e-09 -7.47473e-09 8.87104e-09)

surfaceFieldValue massFlowAtFilter_10 write:
    sum(fz_solid_10) of phi = -7.50321e-05

volFieldValue volFieldValue_11 write:
    volIntegrate(cz_solid_11) of U = (2.34034e-10 -7.93609e-09 1.02739e-08)

surfaceFieldValue massFlowAtFilter_11 write:
    sum(fz_solid_11) of phi = 8.46719e-06

volFieldValue volFieldValue_12 write:
    volIntegrate(cz_solid_12) of U = (3.75206e-09 -8.50227e-09 1.0733e-08)

surfaceFieldValue massFlowAtFilter_12 write:
    sum(fz_solid_12) of phi = 2.46543e-05

volFieldValue volFieldValue_13 write:
    volIntegrate(cz_solid_13) of U = (7.48787e-09 -9.44349e-09 9.89119e-09)

surfaceFieldValue massFlowAtFilter_13 write:
    sum(fz_solid_13) of phi = 0.000116465

volFieldValue volFieldValue_14 write:
    volIntegrate(cz_solid_14) of U = (1.06403e-08 -1.01979e-08 7.63146e-09)

surfaceFieldValue massFlowAtFilter_14 write:
    sum(fz_solid_14) of phi = 0.000184134

volFieldValue volFieldValue_15 write:
    volIntegrate(cz_solid_15) of U = (1.24791e-08 -1.07176e-08 3.90748e-09)

surfaceFieldValue massFlowAtFilter_15 write:
    sum(fz_solid_15) of phi = 0.000169554

volFieldValue volFieldValue_16 write:
    volIntegrate(cz_solid_16) of U = (1.23208e-08 -1.03395e-08 -1.71872e-11)

surfaceFieldValue massFlowAtFilter_16 write:
    sum(fz_solid_16) of phi = 7.12176e-05

volFieldValue volFieldValue_17 write:
    volIntegrate(cz_solid_17) of U = (1.0576e-08 -9.87414e-09 -3.28238e-09)

surfaceFieldValue massFlowAtFilter_17 write:
    sum(fz_solid_17) of phi = -2.83234e-05

volFieldValue volFieldValue_18 write:
    volIntegrate(cz_solid_18) of U = (8.06545e-09 -8.75204e-09 -5.36441e-09)

surfaceFieldValue massFlowAtFilter_18 write:
    sum(fz_solid_18) of phi = 0.000115649

volFieldValue volFieldValue_19 write:
    volIntegrate(cz_solid_19) of U = (5.25637e-09 -7.89339e-09 -6.19055e-09)

surfaceFieldValue massFlowAtFilter_19 write:
    sum(fz_solid_19) of phi = 1.69907e-05

volFieldValue volFieldValue_20 write:
    volIntegrate(cz_solid_20) of U = (2.24114e-09 -1.37646e-08 -4.60104e-09)

surfaceFieldValue massFlowAtFilter_20 write:
    sum(fz_solid_20) of phi = 2.86573e-05

volFieldValue volFieldValue_21 write:
    volIntegrate(cz_solid_21) of U = (5.84894e-10 -1.26242e-08 -4.18601e-09)

surfaceFieldValue massFlowAtFilter_21 write:
    sum(fz_solid_21) of phi = 3.24061e-05

volFieldValue volFieldValue_22 write:
    volIntegrate(cz_solid_22) of U = (-7.24477e-10 -1.22201e-08 -3.52294e-09)

surfaceFieldValue massFlowAtFilter_22 write:
    sum(fz_solid_22) of phi = -5.71192e-05

volFieldValue volFieldValue_23 write:
    volIntegrate(cz_solid_23) of U = (-1.72194e-09 -1.19758e-08 -2.7309e-09)

surfaceFieldValue massFlowAtFilter_23 write:
    sum(fz_solid_23) of phi = 2.77435e-05

volFieldValue volFieldValue_24 write:
    volIntegrate(cz_solid_24) of U = (-2.62188e-09 -1.13689e-08 -1.75349e-09)

surfaceFieldValue massFlowAtFilter_24 write:
    sum(fz_solid_24) of phi = 1.0928e-05

volFieldValue volFieldValue_25 write:
    volIntegrate(cz_solid_25) of U = (-3.36613e-09 -1.11001e-08 -7.85457e-10)

surfaceFieldValue massFlowAtFilter_25 write:
    sum(fz_solid_25) of phi = 9.52862e-07

volFieldValue volFieldValue_26 write:
    volIntegrate(cz_solid_26) of U = (-4.06665e-09 -1.17829e-08 4.13228e-10)

surfaceFieldValue massFlowAtFilter_26 write:
    sum(fz_solid_26) of phi = -1.40271e-06

volFieldValue volFieldValue_27 write:
    volIntegrate(cz_solid_27) of U = (-4.37721e-09 -1.19363e-08 1.97949e-09)

surfaceFieldValue massFlowAtFilter_27 write:
    sum(fz_solid_27) of phi = 3.61983e-05

volFieldValue volFieldValue_28 write:
    volIntegrate(cz_solid_28) of U = (-4.17028e-09 -1.27395e-08 3.6897e-09)

surfaceFieldValue massFlowAtFilter_28 write:
    sum(fz_solid_28) of phi = 5.31216e-05

volFieldValue volFieldValue_29 write:
    volIntegrate(cz_solid_29) of U = (-3.19709e-09 -1.36837e-08 5.51047e-09)

surfaceFieldValue massFlowAtFilter_29 write:
    sum(fz_solid_29) of phi = 2.11013e-05

volFieldValue volFieldValue_30 write:
    volIntegrate(cz_solid_30) of U = (-1.56493e-09 -1.51126e-08 6.98239e-09)

surfaceFieldValue massFlowAtFilter_30 write:
    sum(fz_solid_30) of phi = -1.5168e-05

volFieldValue volFieldValue_31 write:
    volIntegrate(cz_solid_31) of U = (5.95236e-10 -1.73619e-08 7.94503e-09)

surfaceFieldValue massFlowAtFilter_31 write:
    sum(fz_solid_31) of phi = -4.03001e-05

volFieldValue volFieldValue_32 write:
    volIntegrate(cz_solid_32) of U = (3.28045e-09 -1.91108e-08 8.18872e-09)

surfaceFieldValue massFlowAtFilter_32 write:
    sum(fz_solid_32) of phi = -1.20853e-05

volFieldValue volFieldValue_33 write:
    volIntegrate(cz_solid_33) of U = (6.11106e-09 -2.13452e-08 7.57801e-09)

surfaceFieldValue massFlowAtFilter_33 write:
    sum(fz_solid_33) of phi = 8.74264e-05

volFieldValue volFieldValue_34 write:
    volIntegrate(cz_solid_34) of U = (8.48755e-09 -2.33732e-08 6.09935e-09)

surfaceFieldValue massFlowAtFilter_34 write:
    sum(fz_solid_34) of phi = 6.19663e-05

volFieldValue volFieldValue_35 write:
    volIntegrate(cz_solid_35) of U = (9.97116e-09 -2.36645e-08 3.46308e-09)

surfaceFieldValue massFlowAtFilter_35 write:
    sum(fz_solid_35) of phi = 7.11931e-05

volFieldValue volFieldValue_36 write:
    volIntegrate(cz_solid_36) of U = (9.94101e-09 -2.21175e-08 5.78979e-10)

surfaceFieldValue massFlowAtFilter_36 write:
    sum(fz_solid_36) of phi = 4.78106e-05

volFieldValue volFieldValue_37 write:
    volIntegrate(cz_solid_37) of U = (8.61606e-09 -1.95334e-08 -1.98439e-09)

surfaceFieldValue massFlowAtFilter_37 write:
    sum(fz_solid_37) of phi = 8.43947e-06

volFieldValue volFieldValue_38 write:
    volIntegrate(cz_solid_38) of U = (6.64059e-09 -1.76107e-08 -3.73061e-09)

surfaceFieldValue massFlowAtFilter_38 write:
    sum(fz_solid_38) of phi = -2.46996e-05

volFieldValue volFieldValue_39 write:
    volIntegrate(cz_solid_39) of U = (4.30416e-09 -1.49726e-08 -4.47785e-09)

surfaceFieldValue massFlowAtFilter_39 write:
    sum(fz_solid_39) of phi = 3.76338e-05

volFieldValue volFieldValue_40 write:
    volIntegrate(cz_solid_40) of U = (1.24992e-09 -1.25108e-08 -1.82152e-09)

surfaceFieldValue massFlowAtFilter_40 write:
    sum(fz_solid_40) of phi = 3.82198e-05

volFieldValue volFieldValue_41 write:
    volIntegrate(cz_solid_41) of U = (4.09472e-10 -1.14354e-08 -1.74815e-09)

surfaceFieldValue massFlowAtFilter_41 write:
    sum(fz_solid_41) of phi = 1.49436e-05

volFieldValue volFieldValue_42 write:
    volIntegrate(cz_solid_42) of U = (-2.76547e-10 -1.11683e-08 -1.49362e-09)

surfaceFieldValue massFlowAtFilter_42 write:
    sum(fz_solid_42) of phi = 1.46919e-06

volFieldValue volFieldValue_43 write:
    volIntegrate(cz_solid_43) of U = (-8.36603e-10 -1.0766e-08 -1.11415e-09)

surfaceFieldValue massFlowAtFilter_43 write:
    sum(fz_solid_43) of phi = 2.23448e-05

volFieldValue volFieldValue_44 write:
    volIntegrate(cz_solid_44) of U = (-1.35823e-09 -1.01129e-08 -6.41743e-10)

surfaceFieldValue massFlowAtFilter_44 write:
    sum(fz_solid_44) of phi = 2.69998e-06

volFieldValue volFieldValue_45 write:
    volIntegrate(cz_solid_45) of U = (-1.85656e-09 -1.00038e-08 -1.1545e-10)

surfaceFieldValue massFlowAtFilter_45 write:
    sum(fz_solid_45) of phi = 3.21593e-06

volFieldValue volFieldValue_46 write:
    volIntegrate(cz_solid_46) of U = (-2.33175e-09 -1.02913e-08 5.53724e-10)

surfaceFieldValue massFlowAtFilter_46 write:
    sum(fz_solid_46) of phi = -1.61356e-05

volFieldValue volFieldValue_47 write:
    volIntegrate(cz_solid_47) of U = (-2.53721e-09 -1.03814e-08 1.56264e-09)

surfaceFieldValue massFlowAtFilter_47 write:
    sum(fz_solid_47) of phi = 4.07309e-05

volFieldValue volFieldValue_48 write:
    volIntegrate(cz_solid_48) of U = (-2.36122e-09 -1.07788e-08 2.67828e-09)

surfaceFieldValue massFlowAtFilter_48 write:
    sum(fz_solid_48) of phi = -6.42874e-06

volFieldValue volFieldValue_49 write:
    volIntegrate(cz_solid_49) of U = (-1.64189e-09 -1.14387e-08 3.87722e-09)

surfaceFieldValue massFlowAtFilter_49 write:
    sum(fz_solid_49) of phi = -1.29713e-05

volFieldValue volFieldValue_50 write:
    volIntegrate(cz_solid_50) of U = (-4.07579e-10 -1.24784e-08 4.867e-09)

surfaceFieldValue massFlowAtFilter_50 write:
    sum(fz_solid_50) of phi = 1.12434e-05

volFieldValue volFieldValue_51 write:
    volIntegrate(cz_solid_51) of U = (1.14262e-09 -1.42114e-08 5.44684e-09)

surfaceFieldValue massFlowAtFilter_51 write:
    sum(fz_solid_51) of phi = -1.12819e-05

volFieldValue volFieldValue_52 write:
    volIntegrate(cz_solid_52) of U = (3.10578e-09 -1.59137e-08 5.58438e-09)

surfaceFieldValue massFlowAtFilter_52 write:
    sum(fz_solid_52) of phi = -1.84373e-06

volFieldValue volFieldValue_53 write:
    volIntegrate(cz_solid_53) of U = (5.22333e-09 -1.87239e-08 5.32038e-09)

surfaceFieldValue massFlowAtFilter_53 write:
    sum(fz_solid_53) of phi = 2.12987e-05

volFieldValue volFieldValue_54 write:
    volIntegrate(cz_solid_54) of U = (7.14578e-09 -2.28889e-08 4.74285e-09)

surfaceFieldValue massFlowAtFilter_54 write:
    sum(fz_solid_54) of phi = 5.50675e-05

volFieldValue volFieldValue_55 write:
    volIntegrate(cz_solid_55) of U = (8.37865e-09 -2.53911e-08 3.42185e-09)

surfaceFieldValue massFlowAtFilter_55 write:
    sum(fz_solid_55) of phi = 3.46651e-05

volFieldValue volFieldValue_56 write:
    volIntegrate(cz_solid_56) of U = (7.71863e-09 -2.48415e-08 2.17718e-09)

surfaceFieldValue massFlowAtFilter_56 write:
    sum(fz_solid_56) of phi = -2.44992e-05

volFieldValue volFieldValue_57 write:
    volIntegrate(cz_solid_57) of U = (5.60426e-09 -2.01768e-08 7.12261e-10)

surfaceFieldValue massFlowAtFilter_57 write:
    sum(fz_solid_57) of phi = 3.5584e-06

volFieldValue volFieldValue_58 write:
    volIntegrate(cz_solid_58) of U = (3.70223e-09 -1.6044e-08 -9.30805e-10)

surfaceFieldValue massFlowAtFilter_58 write:
    sum(fz_solid_58) of phi = 4.45471e-06

volFieldValue volFieldValue_59 write:
    volIntegrate(cz_solid_59) of U = (2.34573e-09 -1.32924e-08 -1.55753e-09)

surfaceFieldValue massFlowAtFilter_59 write:
    sum(fz_solid_59) of phi = 1.04798e-05

volFieldValue volFieldValue_60 write:
    volIntegrate(cz_solid_60) of U = (-1.967e-10 -9.24201e-09 8.04069e-10)

surfaceFieldValue massFlowAtFilter_60 write:
    sum(fz_solid_60) of phi = -2.32955e-06

volFieldValue volFieldValue_61 write:
    volIntegrate(cz_solid_61) of U = (-1.22296e-11 -8.31098e-09 4.24375e-10)

surfaceFieldValue massFlowAtFilter_61 write:
    sum(fz_solid_61) of phi = -1.29293e-05

volFieldValue volFieldValue_62 write:
    volIntegrate(cz_solid_62) of U = (-6.42901e-11 -7.86918e-09 1.87921e-10)

surfaceFieldValue massFlowAtFilter_62 write:
    sum(fz_solid_62) of phi = -8.62901e-06

volFieldValue volFieldValue_63 write:
    volIntegrate(cz_solid_63) of U = (-3.04764e-10 -7.47221e-09 1.50672e-10)

surfaceFieldValue massFlowAtFilter_63 write:
    sum(fz_solid_63) of phi = -1.20061e-05

volFieldValue volFieldValue_64 write:
    volIntegrate(cz_solid_64) of U = (-5.88101e-10 -6.95278e-09 1.68065e-10)

surfaceFieldValue massFlowAtFilter_64 write:
    sum(fz_solid_64) of phi = -2.21807e-05

volFieldValue volFieldValue_65 write:
    volIntegrate(cz_solid_65) of U = (-9.52711e-10 -6.78903e-09 3.51036e-10)

surfaceFieldValue massFlowAtFilter_65 write:
    sum(fz_solid_65) of phi = -2.8015e-05

volFieldValue volFieldValue_66 write:
    volIntegrate(cz_solid_66) of U = (-1.32626e-09 -7.0674e-09 6.80582e-10)

surfaceFieldValue massFlowAtFilter_66 write:
    sum(fz_solid_66) of phi = -2.17663e-05

volFieldValue volFieldValue_67 write:
    volIntegrate(cz_solid_67) of U = (-1.49688e-09 -7.0656e-09 1.38293e-09)

surfaceFieldValue massFlowAtFilter_67 write:
    sum(fz_solid_67) of phi = -1.56949e-05

volFieldValue volFieldValue_68 write:
    volIntegrate(cz_solid_68) of U = (-1.36604e-09 -7.32107e-09 2.20583e-09)

surfaceFieldValue massFlowAtFilter_68 write:
    sum(fz_solid_68) of phi = -2.39396e-05

volFieldValue volFieldValue_69 write:
    volIntegrate(cz_solid_69) of U = (-7.65022e-10 -7.91261e-09 3.17709e-09)

surfaceFieldValue massFlowAtFilter_69 write:
    sum(fz_solid_69) of phi = -2.00811e-05

volFieldValue volFieldValue_70 write:
    volIntegrate(cz_solid_70) of U = (3.21601e-10 -8.77684e-09 4.0309e-09)

surfaceFieldValue massFlowAtFilter_70 write:
    sum(fz_solid_70) of phi = -3.46046e-05

volFieldValue volFieldValue_71 write:
    volIntegrate(cz_solid_71) of U = (1.75161e-09 -1.03275e-08 4.58328e-09)

surfaceFieldValue massFlowAtFilter_71 write:
    sum(fz_solid_71) of phi = -2.4509e-05

volFieldValue volFieldValue_72 write:
    volIntegrate(cz_solid_72) of U = (3.80639e-09 -1.24e-08 4.8416e-09)

surfaceFieldValue massFlowAtFilter_72 write:
    sum(fz_solid_72) of phi = -5.03279e-05

volFieldValue volFieldValue_73 write:
    volIntegrate(cz_solid_73) of U = (6.52257e-09 -1.64816e-08 4.82717e-09)

surfaceFieldValue massFlowAtFilter_73 write:
    sum(fz_solid_73) of phi = -6.99114e-06

volFieldValue volFieldValue_74 write:
    volIntegrate(cz_solid_74) of U = (9.88088e-09 -2.36149e-08 4.60643e-09)

surfaceFieldValue massFlowAtFilter_74 write:
    sum(fz_solid_74) of phi = 6.46406e-05

volFieldValue volFieldValue_75 write:
    volIntegrate(cz_solid_75) of U = (1.38535e-08 -3.42468e-08 3.00682e-09)

surfaceFieldValue massFlowAtFilter_75 write:
    sum(fz_solid_75) of phi = 8.82718e-05

volFieldValue volFieldValue_76 write:
    volIntegrate(cz_solid_76) of U = (1.47375e-08 -5.19285e-08 2.33065e-09)

surfaceFieldValue massFlowAtFilter_76 write:
    sum(fz_solid_76) of phi = -6.93003e-06

volFieldValue volFieldValue_77 write:
    volIntegrate(cz_solid_77) of U = (4.37331e-09 -4.55105e-08 1.21731e-08)

surfaceFieldValue massFlowAtFilter_77 write:
    sum(fz_solid_77) of phi = 7.37302e-05

volFieldValue volFieldValue_78 write:
    volIntegrate(cz_solid_78) of U = (-4.17779e-09 -1.52851e-08 2.27586e-09)

surfaceFieldValue massFlowAtFilter_78 write:
    sum(fz_solid_78) of phi = -4.98306e-05

volFieldValue volFieldValue_79 write:
    volIntegrate(cz_solid_79) of U = (-9.6851e-10 -9.90878e-09 1.31684e-09)

surfaceFieldValue massFlowAtFilter_79 write:
    sum(fz_solid_79) of phi = -2.5968e-05

volFieldValue volFieldValue_80 write:
    volIntegrate(cz_solid_80) of U = (-1.27129e-09 -4.4167e-09 2.38496e-09)

surfaceFieldValue massFlowAtFilter_80 write:
    sum(fz_solid_80) of phi = -3.87668e-05

volFieldValue volFieldValue_81 write:
    volIntegrate(cz_solid_81) of U = (-4.13566e-10 -3.86064e-09 1.66993e-09)

surfaceFieldValue massFlowAtFilter_81 write:
    sum(fz_solid_81) of phi = -2.75819e-05

volFieldValue volFieldValue_82 write:
    volIntegrate(cz_solid_82) of U = (-6.32456e-11 -3.4773e-09 1.09824e-09)

surfaceFieldValue massFlowAtFilter_82 write:
    sum(fz_solid_82) of phi = -5.52614e-07

volFieldValue volFieldValue_83 write:
    volIntegrate(cz_solid_83) of U = (-1.35423e-10 -3.14153e-09 8.00319e-10)

surfaceFieldValue massFlowAtFilter_83 write:
    sum(fz_solid_83) of phi = -7.28485e-06

volFieldValue volFieldValue_84 write:
    volIntegrate(cz_solid_84) of U = (-2.95845e-10 -2.76833e-09 5.76795e-10)

surfaceFieldValue massFlowAtFilter_84 write:
    sum(fz_solid_84) of phi = -1.90855e-05

volFieldValue volFieldValue_85 write:
    volIntegrate(cz_solid_85) of U = (-5.94705e-10 -2.59317e-09 6.09377e-10)

surfaceFieldValue massFlowAtFilter_85 write:
    sum(fz_solid_85) of phi = -3.56296e-05

volFieldValue volFieldValue_86 write:
    volIntegrate(cz_solid_86) of U = (-8.9056e-10 -2.66063e-09 8.15215e-10)

surfaceFieldValue massFlowAtFilter_86 write:
    sum(fz_solid_86) of phi = -1.55437e-05

volFieldValue volFieldValue_87 write:
    volIntegrate(cz_solid_87) of U = (-1.00661e-09 -2.65649e-09 1.3769e-09)

surfaceFieldValue massFlowAtFilter_87 write:
    sum(fz_solid_87) of phi = 1.83202e-05

volFieldValue volFieldValue_88 write:
    volIntegrate(cz_solid_88) of U = (-8.56318e-10 -2.85627e-09 2.08614e-09)

surfaceFieldValue massFlowAtFilter_88 write:
    sum(fz_solid_88) of phi = -2.21283e-05

volFieldValue volFieldValue_89 write:
    volIntegrate(cz_solid_89) of U = (-2.877e-10 -3.20179e-09 2.94377e-09)

surfaceFieldValue massFlowAtFilter_89 write:
    sum(fz_solid_89) of phi = 3.42599e-06

volFieldValue volFieldValue_90 write:
    volIntegrate(cz_solid_90) of U = (7.8412e-10 -3.51154e-09 3.74216e-09)

surfaceFieldValue massFlowAtFilter_90 write:
    sum(fz_solid_90) of phi = -1.95125e-05

volFieldValue volFieldValue_91 write:
    volIntegrate(cz_solid_91) of U = (2.29e-09 -4.10459e-09 4.2941e-09)

surfaceFieldValue massFlowAtFilter_91 write:
    sum(fz_solid_91) of phi = 7.3266e-06

volFieldValue volFieldValue_92 write:
    volIntegrate(cz_solid_92) of U = (4.69301e-09 -5.1218e-09 4.46243e-09)

surfaceFieldValue massFlowAtFilter_92 write:
    sum(fz_solid_92) of phi = -1.50167e-05

volFieldValue volFieldValue_93 write:
    volIntegrate(cz_solid_93) of U = (8.1108e-09 -7.29092e-09 4.1596e-09)

surfaceFieldValue massFlowAtFilter_93 write:
    sum(fz_solid_93) of phi = 3.73654e-05

volFieldValue volFieldValue_94 write:
    volIntegrate(cz_solid_94) of U = (1.28896e-08 -1.05046e-08 3.58615e-09)

surfaceFieldValue massFlowAtFilter_94 write:
    sum(fz_solid_94) of phi = 0.00019239

volFieldValue volFieldValue_95 write:
[...]

surfaceFieldValue massFlowAtFilter_61 write:
    sum(fz_solid_61) of phi = 4.52971e-05

volFieldValue volFieldValue_62 write:
    volIntegrate(cz_solid_62) of U = (-1.69273e-09 -5.50696e-08 2.00749e-09)

surfaceFieldValue massFlowAtFilter_62 write:
    sum(fz_solid_62) of phi = -3.29598e-05

volFieldValue volFieldValue_63 write:
    volIntegrate(cz_solid_63) of U = (-3.14477e-09 -1.22962e-07 4.80623e-09)

surfaceFieldValue massFlowAtFilter_63 write:
    sum(fz_solid_63) of phi = 0.000921635

volFieldValue volFieldValue_64 write:
    volIntegrate(cz_solid_64) of U = (-1.47176e-09 -1.92017e-07 1.03578e-08)

surfaceFieldValue massFlowAtFilter_64 write:
    sum(fz_solid_64) of phi = 0.000412239

volFieldValue volFieldValue_65 write:
    volIntegrate(cz_solid_65) of U = (4.55784e-09 -2.5257e-07 1.25541e-08)

surfaceFieldValue massFlowAtFilter_65 write:
    sum(fz_solid_65) of phi = 0.000242655

volFieldValue volFieldValue_66 write:
    volIntegrate(cz_solid_66) of U = (5.51563e-09 -3.09068e-07 8.31718e-09)

surfaceFieldValue massFlowAtFilter_66 write:
    sum(fz_solid_66) of phi = -0.00100857

volFieldValue volFieldValue_67 write:
    volIntegrate(cz_solid_67) of U = (4.68111e-09 -3.40429e-07 7.82571e-09)

surfaceFieldValue massFlowAtFilter_67 write:
    sum(fz_solid_67) of phi = 0.000943218

volFieldValue volFieldValue_68 write:
    volIntegrate(cz_solid_68) of U = (8.42367e-09 -3.55387e-07 5.54659e-09)

surfaceFieldValue massFlowAtFilter_68 write:
    sum(fz_solid_68) of phi = 4.05575e-05

volFieldValue volFieldValue_69 write:
    volIntegrate(cz_solid_69) of U = (5.89855e-09 -3.24334e-07 4.48605e-11)

surfaceFieldValue massFlowAtFilter_69 write:
    sum(fz_solid_69) of phi = -4.46347e-05

volFieldValue volFieldValue_70 write:
    volIntegrate(cz_solid_70) of U = (2.2832e-09 -2.23322e-07 -2.04745e-09)

surfaceFieldValue massFlowAtFilter_70 write:
    sum(fz_solid_70) of phi = -0.000470154

volFieldValue volFieldValue_71 write:
    volIntegrate(cz_solid_71) of U = (1.21252e-09 -1.79278e-07 -1.55544e-09)

surfaceFieldValue massFlowAtFilter_71 write:
    sum(fz_solid_71) of phi = -4.16969e-05

volFieldValue volFieldValue_72 write:
    volIntegrate(cz_solid_72) of U = (-1.55271e-10 -1.01973e-07 -1.15179e-09)

surfaceFieldValue massFlowAtFilter_72 write:
    sum(fz_solid_72) of phi = 7.4202e-05

volFieldValue volFieldValue_73 write:
    volIntegrate(cz_solid_73) of U = (-1.14582e-09 6.4078e-08 -1.07109e-09)

surfaceFieldValue massFlowAtFilter_73 write:
    sum(fz_solid_73) of phi = -6.58279e-05

volFieldValue volFieldValue_74 write:
    volIntegrate(cz_solid_74) of U = (-1.61983e-09 1.99736e-07 -1.0538e-09)

surfaceFieldValue massFlowAtFilter_74 write:
    sum(fz_solid_74) of phi = -2.39383e-05

volFieldValue volFieldValue_75 write:
    volIntegrate(cz_solid_75) of U = (-1.59532e-09 2.41584e-07 -1.10044e-09)

surfaceFieldValue massFlowAtFilter_75 write:
    sum(fz_solid_75) of phi = -0.000151364

volFieldValue volFieldValue_76 write:
    volIntegrate(cz_solid_76) of U = (-1.35785e-09 1.44381e-07 -8.66163e-10)

surfaceFieldValue massFlowAtFilter_76 write:
    sum(fz_solid_76) of phi = 4.54652e-05

volFieldValue volFieldValue_77 write:
    volIntegrate(cz_solid_77) of U = (-1.04783e-09 1.05956e-07 -2.04431e-10)

surfaceFieldValue massFlowAtFilter_77 write:
    sum(fz_solid_77) of phi = -1.23715e-06

volFieldValue volFieldValue_78 write:
    volIntegrate(cz_solid_78) of U = (-9.46742e-10 1.22732e-07 2.56924e-10)

surfaceFieldValue massFlowAtFilter_78 write:
    sum(fz_solid_78) of phi = -0.000388101

volFieldValue volFieldValue_79 write:
    volIntegrate(cz_solid_79) of U = (-9.31912e-10 7.3593e-08 8.69144e-10)

surfaceFieldValue massFlowAtFilter_79 write:
    sum(fz_solid_79) of phi = -6.91757e-05

volFieldValue volFieldValue_80 write:
    volIntegrate(cz_solid_80) of U = (-1.08244e-09 -7.92612e-09 8.96774e-10)

surfaceFieldValue massFlowAtFilter_80 write:
    sum(fz_solid_80) of phi = -6.238e-06

volFieldValue volFieldValue_81 write:
    volIntegrate(cz_solid_81) of U = (-1.14915e-09 -4.04119e-08 1.21192e-09)

surfaceFieldValue massFlowAtFilter_81 write:
    sum(fz_solid_81) of phi = -6.09628e-06

volFieldValue volFieldValue_82 write:
    volIntegrate(cz_solid_82) of U = (-2.31215e-09 -5.91653e-08 2.1264e-09)

surfaceFieldValue massFlowAtFilter_82 write:
    sum(fz_solid_82) of phi = -3.74185e-05

volFieldValue volFieldValue_83 write:
    volIntegrate(cz_solid_83) of U = (-4.04565e-09 -7.82568e-08 5.35046e-09)

surfaceFieldValue massFlowAtFilter_83 write:
    sum(fz_solid_83) of phi = 0.000677374

volFieldValue volFieldValue_84 write:
    volIntegrate(cz_solid_84) of U = (-2.39958e-09 -8.07003e-08 1.27049e-08)

surfaceFieldValue massFlowAtFilter_84 write:
    sum(fz_solid_84) of phi = 0.00107421

volFieldValue volFieldValue_85 write:
    volIntegrate(cz_solid_85) of U = (5.05764e-09 -7.77055e-08 1.56686e-08)

surfaceFieldValue massFlowAtFilter_85 write:
    sum(fz_solid_85) of phi = 4.46003e-05

volFieldValue volFieldValue_86 write:
    volIntegrate(cz_solid_86) of U = (7.28212e-09 -5.08141e-08 1.02072e-08)

surfaceFieldValue massFlowAtFilter_86 write:
    sum(fz_solid_86) of phi = -0.00133408

volFieldValue volFieldValue_87 write:
    volIntegrate(cz_solid_87) of U = (7.12887e-09 -3.84456e-08 9.77782e-09)

surfaceFieldValue massFlowAtFilter_87 write:
    sum(fz_solid_87) of phi = 0.00282451

volFieldValue volFieldValue_88 write:
    volIntegrate(cz_solid_88) of U = (1.24743e-08 -2.93214e-08 6.91877e-09)

surfaceFieldValue massFlowAtFilter_88 write:
    sum(fz_solid_88) of phi = -0.000509588

volFieldValue volFieldValue_89 write:
    volIntegrate(cz_solid_89) of U = (1.20745e-08 -5.09117e-08 -8.01294e-10)

surfaceFieldValue massFlowAtFilter_89 write:
    sum(fz_solid_89) of phi = 1.64798e-05

volFieldValue volFieldValue_90 write:
    volIntegrate(cz_solid_90) of U = (4.66225e-09 -4.40915e-08 -4.21536e-09)

surfaceFieldValue massFlowAtFilter_90 write:
    sum(fz_solid_90) of phi = -0.000946347

volFieldValue volFieldValue_91 write:
    volIntegrate(cz_solid_91) of U = (2.02439e-09 -9.9215e-08 -2.19281e-09)

surfaceFieldValue massFlowAtFilter_91 write:
    sum(fz_solid_91) of phi = -5.72238e-05

volFieldValue volFieldValue_92 write:
    volIntegrate(cz_solid_92) of U = (1.15736e-09 -1.16419e-07 -2.3975e-09)

surfaceFieldValue massFlowAtFilter_92 write:
    sum(fz_solid_92) of phi = 4.11064e-05

volFieldValue volFieldValue_93 write:
    volIntegrate(cz_solid_93) of U = (-1.13485e-09 -9.90828e-08 -3.8625e-09)

surfaceFieldValue massFlowAtFilter_93 write:
    sum(fz_solid_93) of phi = -0.000247936

volFieldValue volFieldValue_94 write:
    volIntegrate(cz_solid_94) of U = (-4.09722e-09 -1.1527e-08 -2.48232e-09)

surfaceFieldValue massFlowAtFilter_94 write:
    sum(fz_solid_94) of phi = 0.000472754

volFieldValue volFieldValue_95 write:
    volIntegrate(cz_solid_95) of U = (-2.79696e-09 6.54278e-08 -1.55803e-09)

surfaceFieldValue massFlowAtFilter_95 write:
    sum(fz_solid_95) of phi = -1.39307e-05

volFieldValue volFieldValue_96 write:
    volIntegrate(cz_solid_96) of U = (-1.4861e-09 9.71724e-08 -1.19603e-09)

surfaceFieldValue massFlowAtFilter_96 write:
    sum(fz_solid_96) of phi = 0.000238651

volFieldValue volFieldValue_97 write:
    volIntegrate(cz_solid_97) of U = (-8.11259e-10 1.14202e-07 -1.68437e-10)

surfaceFieldValue massFlowAtFilter_97 write:
    sum(fz_solid_97) of phi = 0.000258157

volFieldValue volFieldValue_98 write:
    volIntegrate(cz_solid_98) of U = (-8.88107e-10 8.01602e-08 2.67009e-10)

surfaceFieldValue massFlowAtFilter_98 write:
    sum(fz_solid_98) of phi = -0.000158841

volFieldValue volFieldValue_99 write:
    volIntegrate(cz_solid_99) of U = (-9.29399e-10 4.02599e-08 6.02582e-10)

surfaceFieldValue massFlowAtFilter_99 write:
    sum(fz_solid_99) of phi = 1.94613e-05

Time = 1021

DILUPBiCG:  Solving for Ux, Initial residual = 1.63085e-07, Final residual = 1.63085e-07, No Iterations 0
DILUPBiCG:  Solving for Uy, Initial residual = 1.65297e-07, Final residual = 1.65297e-07, No Iterations 0
DILUPBiCG:  Solving for Uz, Initial residual = 3.34979e-07, Final residual = 3.34979e-07, No Iterations 0
DICPCG:  Solving for p, Initial residual = 0.00101979, Final residual = 9.79463e-05, No Iterations 16
DICPCG:  Solving for p, Initial residual = 0.000240407, Final residual = 2.33709e-05, No Iterations 22
DICPCG:  Solving for p, Initial residual = 5.38398e-05, Final residual = 9.75886e-06, No Iterations 77
time step continuity errors : sum local = 0.000112372, global = -1.28886e-05, cumulative = -0.00433595
DILUPBiCG:  Solving for epsilon, Initial residual = 0.000733707, Final residual = 3.98675e-07, No Iterations 3
DILUPBiCG:  Solving for k, Initial residual = 0.000879442, Final residual = 4.4014e-07, No Iterations 3
ExecutionTime = 2026.7 s  ClockTime = 2111 s

Time = 1022

DILUPBiCG:  Solving for Ux, Initial residual = 1.62422e-07, Final residual = 1.62422e-07, No Iterations 0
DILUPBiCG:  Solving for Uy, Initial residual = 1.65387e-07, Final residual = 1.65387e-07, No Iterations 0
DILUPBiCG:  Solving for Uz, Initial residual = 3.33763e-07, Final residual = 3.33763e-07, No Iterations 0
DICPCG:  Solving for p, Initial residual = 0.00101924, Final residual = 9.70652e-05, No Iterations 16
DICPCG:  Solving for p, Initial residual = 0.000239625, Final residual = 2.2834e-05, No Iterations 22
DICPCG:  Solving for p, Initial residual = 5.3335e-05, Final residual = 9.78743e-06, No Iterations 77
time step continuity errors : sum local = 0.000112744, global = -1.34051e-05, cumulative = -0.00434935
DILUPBiCG:  Solving for epsilon, Initial residual = 0.000732454, Final residual = 3.97457e-07, No Iterations 3
DILUPBiCG:  Solving for k, Initial residual = 0.000877451, Final residual = 4.38848e-07, No Iterations 3
ExecutionTime = 2028.37 s  ClockTime = 2113 s

Time = 1023

DILUPBiCG:  Solving for Ux, Initial residual = 1.61769e-07, Final residual = 1.61769e-07, No Iterations 0
DILUPBiCG:  Solving for Uy, Initial residual = 1.65479e-07, Final residual = 1.65479e-07, No Iterations 0
DILUPBiCG:  Solving for Uz, Initial residual = 3.32551e-07, Final residual = 3.32551e-07, No Iterations 0
DICPCG:  Solving for p, Initial residual = 0.00101756, Final residual = 9.65285e-05, No Iterations 16
DICPCG:  Solving for p, Initial residual = 0.000238928, Final residual = 2.23342e-05, No Iterations 22
DICPCG:  Solving for p, Initial residual = 5.28303e-05, Final residual = 9.69602e-06, No Iterations 78
time step continuity errors : sum local = 0.000111734, global = -1.4487e-05, cumulative = -0.00436384
DILUPBiCG:  Solving for epsilon, Initial residual = 0.000731235, Final residual = 3.96742e-07, No Iterations 3
DILUPBiCG:  Solving for k, Initial residual = 0.000875487, Final residual = 4.37598e-07, No Iterations 3
ExecutionTime = 2030.07 s  ClockTime = 2115 s

Time = 1024

DILUPBiCG:  Solving for Ux, Initial residual = 1.61127e-07, Final residual = 1.61127e-07, No Iterations 0
DILUPBiCG:  Solving for Uy, Initial residual = 1.65573e-07, Final residual = 1.65573e-07, No Iterations 0
DILUPBiCG:  Solving for Uz, Initial residual = 3.31345e-07, Final residual = 3.31345e-07, No Iterations 0
DICPCG:  Solving for p, Initial residual = 0.00101632, Final residual = 9.58665e-05, No Iterations 16
DICPCG:  Solving for p, Initial residual = 0.000237781, Final residual = 2.17379e-05, No Iterations 22
DICPCG:  Solving for p, Initial residual = 5.21633e-05, Final residual = 9.76455e-06, No Iterations 79
time step continuity errors : sum local = 0.000112569, global = -1.61685e-05, cumulative = -0.00438001
DILUPBiCG:  Solving for epsilon, Initial residual = 0.000730044, Final residual = 3.9615e-07, No Iterations 3
DILUPBiCG:  Solving for k, Initial residual = 0.000873556, Final residual = 4.36425e-07, No Iterations 3
ExecutionTime = 2031.77 s  ClockTime = 2116 s

Time = 1025

DILUPBiCG:  Solving for Ux, Initial residual = 1.60487e-07, Final residual = 1.60487e-07, No Iterations 0
DILUPBiCG:  Solving for Uy, Initial residual = 1.65667e-07, Final residual = 1.65667e-07, No Iterations 0
DILUPBiCG:  Solving for Uz, Initial residual = 3.30138e-07, Final residual = 3.30138e-07, No Iterations 0
DICPCG:  Solving for p, Initial residual = 0.00101316, Final residual = 9.47707e-05, No Iterations 16
DICPCG:  Solving for p, Initial residual = 0.000236382, Final residual = 2.32873e-05, No Iterations 21
DICPCG:  Solving for p, Initial residual = 5.2652e-05, Final residual = 9.63493e-06, No Iterations 83
time step continuity errors : sum local = 0.00011112, global = -1.80733e-05, cumulative = -0.00439808
DILUPBiCG:  Solving for epsilon, Initial residual = 0.000728887, Final residual = 3.95859e-07, No Iterations 3
DILUPBiCG:  Solving for k, Initial residual = 0.000871652, Final residual = 4.35355e-07, No Iterations 3
ExecutionTime = 2033.5 s  ClockTime = 2118 s

Time = 1026

DILUPBiCG:  Solving for Ux, Initial residual = 1.5986e-07, Final residual = 1.5986e-07, No Iterations 0
DILUPBiCG:  Solving for Uy, Initial residual = 1.65763e-07, Final residual = 1.65763e-07, No Iterations 0
DILUPBiCG:  Solving for Uz, Initial residual = 3.2894e-07, Final residual = 3.2894e-07, No Iterations 0
DICPCG:  Solving for p, Initial residual = 0.0010117, Final residual = 9.37978e-05, No Iterations 16
DICPCG:  Solving for p, Initial residual = 0.000235237, Final residual = 2.26437e-05, No Iterations 21
DICPCG:  Solving for p, Initial residual = 5.19613e-05, Final residual = 9.98497e-06, No Iterations 89
time step continuity errors : sum local = 0.000115207, global = -1.97417e-05, cumulative = -0.00441782
DILUPBiCG:  Solving for epsilon, Initial residual = 0.000727756, Final residual = 3.95553e-07, No Iterations 3
DILUPBiCG:  Solving for k, Initial residual = 0.000869788, Final residual = 4.34347e-07, No Iterations 3
ExecutionTime = 2035.3 s  ClockTime = 2120 s

Time = 1027

DILUPBiCG:  Solving for Ux, Initial residual = 1.59245e-07, Final residual = 1.59245e-07, No Iterations 0
DILUPBiCG:  Solving for Uy, Initial residual = 1.6586e-07, Final residual = 1.6586e-07, No Iterations 0
DILUPBiCG:  Solving for Uz, Initial residual = 3.27747e-07, Final residual = 3.27747e-07, No Iterations 0
DICPCG:  Solving for p, Initial residual = 0.00101185, Final residual = 0.000101066, No Iterations 15
DICPCG:  Solving for p, Initial residual = 0.000240378, Final residual = 2.32283e-05, No Iterations 21
DICPCG:  Solving for p, Initial residual = 5.33419e-05, Final residual = 9.94543e-06, No Iterations 25
time step continuity errors : sum local = 0.000114802, global = -2.84728e-05, cumulative = -0.0044463
DILUPBiCG:  Solving for epsilon, Initial residual = 0.000726654, Final residual = 3.95452e-07, No Iterations 3
DILUPBiCG:  Solving for k, Initial residual = 0.000867949, Final residual = 4.33253e-07, No Iterations 3
ExecutionTime = 2036.64 s  ClockTime = 2121 s

Time = 1028

DILUPBiCG:  Solving for Ux, Initial residual = 1.58638e-07, Final residual = 1.58638e-07, No Iterations 0
DILUPBiCG:  Solving for Uy, Initial residual = 1.65952e-07, Final residual = 1.65952e-07, No Iterations 0
DILUPBiCG:  Solving for Uz, Initial residual = 3.26542e-07, Final residual = 3.26542e-07, No Iterations 0
DICPCG:  Solving for p, Initial residual = 0.00100933, Final residual = 0.000100044, No Iterations 15
DICPCG:  Solving for p, Initial residual = 0.000238901, Final residual = 2.34932e-05, No Iterations 21
DICPCG:  Solving for p, Initial residual = 5.32216e-05, Final residual = 9.94112e-06, No Iterations 230
time step continuity errors : sum local = 0.000114805, global = 5.05304e-07, cumulative = -0.00444579
DILUPBiCG:  Solving for epsilon, Initial residual = 0.000725722, Final residual = 3.97246e-07, No Iterations 3
DILUPBiCG:  Solving for k, Initial residual = 0.000866224, Final residual = 4.32264e-07, No Iterations 3
ExecutionTime = 2039.35 s  ClockTime = 2124 s

Time = 1029

DILUPBiCG:  Solving for Ux, Initial residual = 1.58062e-07, Final residual = 1.58062e-07, No Iterations 0
DILUPBiCG:  Solving for Uy, Initial residual = 1.66089e-07, Final residual = 1.66089e-07, No Iterations 0
DILUPBiCG:  Solving for Uz, Initial residual = 3.25388e-07, Final residual = 3.25388e-07, No Iterations 0
DICPCG:  Solving for p, Initial residual = 0.00100476, Final residual = 9.86006e-05, No Iterations 15
DICPCG:  Solving for p, Initial residual = 0.000237506, Final residual = 2.29766e-05, No Iterations 21
DICPCG:  Solving for p, Initial residual = 5.26565e-05, Final residual = 8.93145e-06, No Iterations 39
time step continuity errors : sum local = 0.00010333, global = -1.70424e-05, cumulative = -0.00446283
DILUPBiCG:  Solving for epsilon, Initial residual = 0.000724641, Final residual = 3.97055e-07, No Iterations 3
DILUPBiCG:  Solving for k, Initial residual = 0.000864455, Final residual = 4.31348e-07, No Iterations 3
ExecutionTime = 2040.77 s  ClockTime = 2125 s

Time = 1030

DILUPBiCG:  Solving for Ux, Initial residual = 1.5749e-07, Final residual = 1.5749e-07, No Iterations 0
DILUPBiCG:  Solving for Uy, Initial residual = 1.66176e-07, Final residual = 1.66176e-07, No Iterations 0
DILUPBiCG:  Solving for Uz, Initial residual = 3.24178e-07, Final residual = 3.24178e-07, No Iterations 0
DICPCG:  Solving for p, Initial residual = 0.00100305, Final residual = 9.66634e-05, No Iterations 15
DICPCG:  Solving for p, Initial residual = 0.000235685, Final residual = 2.24462e-05, No Iterations 21
DICPCG:  Solving for p, Initial residual = 5.19766e-05, Final residual = 9.95662e-06, No Iterations 53
time step continuity errors : sum local = 0.000115241, global = -1.22088e-05, cumulative = -0.00447504
DILUPBiCG:  Solving for epsilon, Initial residual = 0.000723659, Final residual = 3.98749e-07, No Iterations 3
DILUPBiCG:  Solving for k, Initial residual = 0.000862743, Final residual = 4.30337e-07, No Iterations 3
ExecutionTime = 2042.27 s  ClockTime = 2127 s

Time = 1031

DILUPBiCG:  Solving for Ux, Initial residual = 1.56919e-07, Final residual = 1.56919e-07, No Iterations 0
DILUPBiCG:  Solving for Uy, Initial residual = 1.66271e-07, Final residual = 1.66271e-07, No Iterations 0
DILUPBiCG:  Solving for Uz, Initial residual = 3.22983e-07, Final residual = 3.22983e-07, No Iterations 0
DICPCG:  Solving for p, Initial residual = 0.00100108, Final residual = 9.58266e-05, No Iterations 15
DICPCG:  Solving for p, Initial residual = 0.000234616, Final residual = 2.19119e-05, No Iterations 21
DICPCG:  Solving for p, Initial residual = 5.13716e-05, Final residual = 9.28953e-06, No Iterations 10
time step continuity errors : sum local = 0.000107571, global = -1.37845e-05, cumulative = -0.00448883
DILUPBiCG:  Solving for epsilon, Initial residual = 0.000722655, Final residual = 3.98378e-07, No Iterations 3
DILUPBiCG:  Solving for k, Initial residual = 0.00086106, Final residual = 4.29475e-07, No Iterations 3
ExecutionTime = 2043.49 s  ClockTime = 2128 s

Time = 1032

DILUPBiCG:  Solving for Ux, Initial residual = 1.56322e-07, Final residual = 1.56322e-07, No Iterations 0
DILUPBiCG:  Solving for Uy, Initial residual = 1.66368e-07, Final residual = 1.66368e-07, No Iterations 0
DILUPBiCG:  Solving for Uz, Initial residual = 3.21749e-07, Final residual = 3.21749e-07, No Iterations 0
DICPCG:  Solving for p, Initial residual = 0.000998558, Final residual = 9.69088e-05, No Iterations 15
DICPCG:  Solving for p, Initial residual = 0.000235495, Final residual = 2.27496e-05, No Iterations 21
DICPCG:  Solving for p, Initial residual = 5.21569e-05, Final residual = 9.89489e-06, No Iterations 55
time step continuity errors : sum local = 0.000114639, global = -6.62337e-06, cumulative = -0.00449545
DILUPBiCG:  Solving for epsilon, Initial residual = 0.000721652, Final residual = 3.97905e-07, No Iterations 3
DILUPBiCG:  Solving for k, Initial residual = 0.000859426, Final residual = 4.28702e-07, No Iterations 3
ExecutionTime = 2045.01 s  ClockTime = 2130 s


SIMPLE solution converged in 1032 iterations

End

Finalising parallel run
