/*---------------------------------------------------------------------------*\
  =========                 |
  \\      /  F ield         | OpenFOAM: The Open Source CFD Toolbox
   \\    /   O peration     | Website:  https://openfoam.org
    \\  /    A nd           | Version:  6
     \\/     M anipulation  |
\*---------------------------------------------------------------------------*/
Build  : 6
Exec   : bouSimpleFoam -parallel
Date   : Aug 08 2020
Time   : 18:47:40
Host   : "emps-ugmat1"
PID    : 29183
I/O    : uncollated
Case   : /home/links/jjw230/Second_Extra/Case11
nProcs : 4
Slaves : 
3
(
"emps-ugmat1.29184"
"emps-ugmat1.29185"
"emps-ugmat1.29186"
)

Pstream initialized with:
    floatTransfer      : 0
    nProcsSimpleSum    : 0
    commsType          : nonBlocking
    polling iterations : 0
sigFpe : Enabling floating point exception trapping (FOAM_SIGFPE).
fileModificationChecking : Monitoring run-time modified files using timeStampMaster (fileModificationSkew 10)
allowSystemOperations : Allowing user-supplied system call operations

// * * * * * * * * * * * * * * * * * * * * * * * * * * * * * * * * * * * * * //
Create time

Create mesh for time = 0


SIMPLE: Convergence criteria found
        p: tolerance 0.001
        U: tolerance 0.001
        "(k|epsilon)": tolerance 0.001
        theta: tolerance 0.001

Reading field p

Reading field U

Reading field theta

Reading/calculating face flux field phi

Selecting incompressible transport model Newtonian
Selecting turbulence model type RAS
Selecting RAS turbulence model RNGkEpsilon
RAS
{
    RASModel        RNGkEpsilon;
    turbulence      on;
    printCoeffs     on;
    Cmu             0.0845;
    C1              1.42;
    C2              1.68;
    C3              0;
    sigmak          0.71942;
    sigmaEps        0.71942;
    eta0            4.38;
    beta            0.012;
}

No MRF models present

Creating finite volume options from "system/fvOptions"

Selecting finite volume options model type explicitPorositySource
    Source: source0
    - selecting cells using cellZone cz_solid_0
    - selected 2318 cell(s) with volume 0.00214549
Porosity region source0:
    selecting model: DarcyForchheimer
    creating porous zone: cz_solid_0
Selecting finite volume options model type explicitPorositySource
    Source: source1
    - selecting cells using cellZone cz_solid_1
    - selected 2452 cell(s) with volume 0.00214203
Porosity region source1:
    selecting model: DarcyForchheimer
    creating porous zone: cz_solid_1
Selecting finite volume options model type explicitPorositySource
    Source: source2
    - selecting cells using cellZone cz_solid_2
    - selected 2346 cell(s) with volume 0.0021458
Porosity region source2:
    selecting model: DarcyForchheimer
    creating porous zone: cz_solid_2
Selecting finite volume options model type explicitPorositySource
    Source: source3
    - selecting cells using cellZone cz_solid_3
    - selected 2089 cell(s) with volume 0.00214083
Porosity region source3:
    selecting model: DarcyForchheimer
    creating porous zone: cz_solid_3
Selecting finite volume options model type explicitPorositySource
    Source: source4
    - selecting cells using cellZone cz_solid_4
    - selected 2326 cell(s) with volume 0.00214486
Porosity region source4:
    selecting model: DarcyForchheimer
    creating porous zone: cz_solid_4
Selecting finite volume options model type explicitPorositySource
    Source: source5
    - selecting cells using cellZone cz_solid_5
    - selected 1880 cell(s) with volume 0.00214169
Porosity region source5:
    selecting model: DarcyForchheimer
    creating porous zone: cz_solid_5
Selecting finite volume options model type explicitPorositySource
    Source: source6
    - selecting cells using cellZone cz_solid_6
    - selected 2174 cell(s) with volume 0.00214469
Porosity region source6:
    selecting model: DarcyForchheimer
    creating porous zone: cz_solid_6
Selecting finite volume options model type explicitPorositySource
    Source: source7
    - selecting cells using cellZone cz_solid_7
    - selected 2094 cell(s) with volume 0.00214469
Porosity region source7:
    selecting model: DarcyForchheimer
    creating porous zone: cz_solid_7
Selecting finite volume options model type explicitPorositySource
    Source: source8
    - selecting cells using cellZone cz_solid_8
    - selected 1733 cell(s) with volume 0.00214304
Porosity region source8:
    selecting model: DarcyForchheimer
    creating porous zone: cz_solid_8
Selecting finite volume options model type explicitPorositySource
    Source: source9
    - selecting cells using cellZone cz_solid_9
    - selected 2083 cell(s) with volume 0.00214288
Porosity region source9:
    selecting model: DarcyForchheimer
    creating porous zone: cz_solid_9
Selecting finite volume options model type explicitPorositySource
    Source: source10
    - selecting cells using cellZone cz_solid_10
    - selected 2281 cell(s) with volume 0.00214538
Porosity region source10:
    selecting model: DarcyForchheimer
    creating porous zone: cz_solid_10
Selecting finite volume options model type explicitPorositySource
    Source: source11
    - selecting cells using cellZone cz_solid_11
    - selected 2356 cell(s) with volume 0.0021436
Porosity region source11:
    selecting model: DarcyForchheimer
    creating porous zone: cz_solid_11
Selecting finite volume options model type explicitPorositySource
    Source: source12
    - selecting cells using cellZone cz_solid_12
    - selected 2358 cell(s) with volume 0.00214457
Porosity region source12:
    selecting model: DarcyForchheimer
    creating porous zone: cz_solid_12
Selecting finite volume options model type explicitPorositySource
    Source: source13
    - selecting cells using cellZone cz_solid_13
    - selected 2004 cell(s) with volume 0.00214294
Porosity region source13:
    selecting model: DarcyForchheimer
    creating porous zone: cz_solid_13
Selecting finite volume options model type explicitPorositySource
    Source: source14
    - selecting cells using cellZone cz_solid_14
    - selected 1880 cell(s) with volume 0.00214444
Porosity region source14:
    selecting model: DarcyForchheimer
    creating porous zone: cz_solid_14
Selecting finite volume options model type explicitPorositySource
    Source: source15
    - selecting cells using cellZone cz_solid_15
    - selected 2114 cell(s) with volume 0.00214218
Porosity region source15:
    selecting model: DarcyForchheimer
    creating porous zone: cz_solid_15
Selecting finite volume options model type explicitPorositySource
    Source: source16
    - selecting cells using cellZone cz_solid_16
    - selected 2244 cell(s) with volume 0.00214174
Porosity region source16:
    selecting model: DarcyForchheimer
    creating porous zone: cz_solid_16
Selecting finite volume options model type explicitPorositySource
    Source: source17
    - selecting cells using cellZone cz_solid_17
    - selected 2319 cell(s) with volume 0.0021455
Porosity region source17:
    selecting model: DarcyForchheimer
    creating porous zone: cz_solid_17
Selecting finite volume options model type explicitPorositySource
    Source: source18
    - selecting cells using cellZone cz_solid_18
    - selected 2361 cell(s) with volume 0.00214502
Porosity region source18:
    selecting model: DarcyForchheimer
    creating porous zone: cz_solid_18
Selecting finite volume options model type explicitPorositySource
    Source: source19
    - selecting cells using cellZone cz_solid_19
    - selected 1815 cell(s) with volume 0.00213939
Porosity region source19:
    selecting model: DarcyForchheimer
    creating porous zone: cz_solid_19
Selecting finite volume options model type explicitPorositySource
    Source: source20
    - selecting cells using cellZone cz_solid_20
    - selected 2328 cell(s) with volume 0.00214497
Porosity region source20:
    selecting model: DarcyForchheimer
    creating porous zone: cz_solid_20
Selecting finite volume options model type explicitPorositySource
    Source: source21
    - selecting cells using cellZone cz_solid_21
    - selected 2444 cell(s) with volume 0.00214198
Porosity region source21:
    selecting model: DarcyForchheimer
    creating porous zone: cz_solid_21
Selecting finite volume options model type explicitPorositySource
    Source: source22
    - selecting cells using cellZone cz_solid_22
    - selected 2328 cell(s) with volume 0.00214543
Porosity region source22:
    selecting model: DarcyForchheimer
    creating porous zone: cz_solid_22
Selecting finite volume options model type explicitPorositySource
    Source: source23
    - selecting cells using cellZone cz_solid_23
    - selected 2088 cell(s) with volume 0.00214072
Porosity region source23:
    selecting model: DarcyForchheimer
    creating porous zone: cz_solid_23
Selecting finite volume options model type explicitPorositySource
    Source: source24
    - selecting cells using cellZone cz_solid_24
    - selected 2332 cell(s) with volume 0.00214469
Porosity region source24:
    selecting model: DarcyForchheimer
    creating porous zone: cz_solid_24
Selecting finite volume options model type explicitPorositySource
    Source: source25
    - selecting cells using cellZone cz_solid_25
    - selected 1892 cell(s) with volume 0.00214096
Porosity region source25:
    selecting model: DarcyForchheimer
    creating porous zone: cz_solid_25
Selecting finite volume options model type explicitPorositySource
    Source: source26
    - selecting cells using cellZone cz_solid_26
    - selected 2164 cell(s) with volume 0.00214477
Porosity region source26:
    selecting model: DarcyForchheimer
    creating porous zone: cz_solid_26
Selecting finite volume options model type explicitPorositySource
    Source: source27
    - selecting cells using cellZone cz_solid_27
    - selected 2090 cell(s) with volume 0.00214477
Porosity region source27:
    selecting model: DarcyForchheimer
    creating porous zone: cz_solid_27
Selecting finite volume options model type explicitPorositySource
    Source: source28
    - selecting cells using cellZone cz_solid_28
    - selected 1738 cell(s) with volume 0.00214298
Porosity region source28:
    selecting model: DarcyForchheimer
    creating porous zone: cz_solid_28
Selecting finite volume options model type explicitPorositySource
    Source: source29
    - selecting cells using cellZone cz_solid_29
    - selected 2074 cell(s) with volume 0.00214265
Porosity region source29:
    selecting model: DarcyForchheimer
    creating porous zone: cz_solid_29
Selecting finite volume options model type explicitPorositySource
    Source: source30
    - selecting cells using cellZone cz_solid_30
    - selected 2292 cell(s) with volume 0.00214513
Porosity region source30:
    selecting model: DarcyForchheimer
    creating porous zone: cz_solid_30
Selecting finite volume options model type explicitPorositySource
    Source: source31
    - selecting cells using cellZone cz_solid_31
    - selected 2368 cell(s) with volume 0.00214362
Porosity region source31:
    selecting model: DarcyForchheimer
    creating porous zone: cz_solid_31
Selecting finite volume options model type explicitPorositySource
    Source: source32
    - selecting cells using cellZone cz_solid_32
    - selected 2348 cell(s) with volume 0.0021446
Porosity region source32:
    selecting model: DarcyForchheimer
    creating porous zone: cz_solid_32
Selecting finite volume options model type explicitPorositySource
    Source: source33
    - selecting cells using cellZone cz_solid_33
    - selected 1996 cell(s) with volume 0.00214284
Porosity region source33:
    selecting model: DarcyForchheimer
    creating porous zone: cz_solid_33
Selecting finite volume options model type explicitPorositySource
    Source: source34
    - selecting cells using cellZone cz_solid_34
    - selected 1892 cell(s) with volume 0.0021443
Porosity region source34:
    selecting model: DarcyForchheimer
    creating porous zone: cz_solid_34
Selecting finite volume options model type explicitPorositySource
    Source: source35
    - selecting cells using cellZone cz_solid_35
    - selected 2106 cell(s) with volume 0.00214131
Porosity region source35:
    selecting model: DarcyForchheimer
    creating porous zone: cz_solid_35
Selecting finite volume options model type explicitPorositySource
    Source: source36
    - selecting cells using cellZone cz_solid_36
    - selected 2256 cell(s) with volume 0.0021421
Porosity region source36:
    selecting model: DarcyForchheimer
    creating porous zone: cz_solid_36
Selecting finite volume options model type explicitPorositySource
    Source: source37
    - selecting cells using cellZone cz_solid_37
    - selected 2332 cell(s) with volume 0.00214473
Porosity region source37:
    selecting model: DarcyForchheimer
    creating porous zone: cz_solid_37
Selecting finite volume options model type explicitPorositySource
    Source: source38
    - selecting cells using cellZone cz_solid_38
    - selected 2346 cell(s) with volume 0.00214441
Porosity region source38:
    selecting model: DarcyForchheimer
    creating porous zone: cz_solid_38
Selecting finite volume options model type explicitPorositySource
    Source: source39
    - selecting cells using cellZone cz_solid_39
    - selected 1814 cell(s) with volume 0.00213933
Porosity region source39:
    selecting model: DarcyForchheimer
    creating porous zone: cz_solid_39
Selecting finite volume options model type explicitPorositySource
    Source: source40
    - selecting cells using cellZone cz_solid_40
    - selected 2388 cell(s) with volume 0.00214541
Porosity region source40:
    selecting model: DarcyForchheimer
    creating porous zone: cz_solid_40
Selecting finite volume options model type explicitPorositySource
    Source: source41
    - selecting cells using cellZone cz_solid_41
    - selected 2508 cell(s) with volume 0.00214184
Porosity region source41:
    selecting model: DarcyForchheimer
    creating porous zone: cz_solid_41
Selecting finite volume options model type explicitPorositySource
    Source: source42
    - selecting cells using cellZone cz_solid_42
    - selected 2409 cell(s) with volume 0.00214556
Porosity region source42:
    selecting model: DarcyForchheimer
    creating porous zone: cz_solid_42
Selecting finite volume options model type explicitPorositySource
    Source: source43
    - selecting cells using cellZone cz_solid_43
    - selected 2159 cell(s) with volume 0.00214075
Porosity region source43:
    selecting model: DarcyForchheimer
    creating porous zone: cz_solid_43
Selecting finite volume options model type explicitPorositySource
    Source: source44
    - selecting cells using cellZone cz_solid_44
    - selected 2396 cell(s) with volume 0.00214484
Porosity region source44:
    selecting model: DarcyForchheimer
    creating porous zone: cz_solid_44
Selecting finite volume options model type explicitPorositySource
    Source: source45
    - selecting cells using cellZone cz_solid_45
    - selected 1964 cell(s) with volume 0.00214176
Porosity region source45:
    selecting model: DarcyForchheimer
    creating porous zone: cz_solid_45
Selecting finite volume options model type explicitPorositySource
    Source: source46
    - selecting cells using cellZone cz_solid_46
    - selected 2244 cell(s) with volume 0.00214457
Porosity region source46:
    selecting model: DarcyForchheimer
    creating porous zone: cz_solid_46
Selecting finite volume options model type explicitPorositySource
    Source: source47
    - selecting cells using cellZone cz_solid_47
    - selected 2171 cell(s) with volume 0.00214458
Porosity region source47:
    selecting model: DarcyForchheimer
    creating porous zone: cz_solid_47
Selecting finite volume options model type explicitPorositySource
    Source: source48
    - selecting cells using cellZone cz_solid_48
    - selected 1810 cell(s) with volume 0.00214309
Porosity region source48:
    selecting model: DarcyForchheimer
    creating porous zone: cz_solid_48
Selecting finite volume options model type explicitPorositySource
    Source: source49
    - selecting cells using cellZone cz_solid_49
    - selected 2139 cell(s) with volume 0.00214291
Porosity region source49:
    selecting model: DarcyForchheimer
    creating porous zone: cz_solid_49
Selecting finite volume options model type explicitPorositySource
    Source: source50
    - selecting cells using cellZone cz_solid_50
    - selected 2365 cell(s) with volume 0.00214512
Porosity region source50:
    selecting model: DarcyForchheimer
    creating porous zone: cz_solid_50
Selecting finite volume options model type explicitPorositySource
    Source: source51
    - selecting cells using cellZone cz_solid_51
    - selected 2433 cell(s) with volume 0.00214355
Porosity region source51:
    selecting model: DarcyForchheimer
    creating porous zone: cz_solid_51
Selecting finite volume options model type explicitPorositySource
    Source: source52
    - selecting cells using cellZone cz_solid_52
    - selected 2414 cell(s) with volume 0.00214445
Porosity region source52:
    selecting model: DarcyForchheimer
    creating porous zone: cz_solid_52
Selecting finite volume options model type explicitPorositySource
    Source: source53
    - selecting cells using cellZone cz_solid_53
    - selected 2060 cell(s) with volume 0.00214298
Porosity region source53:
    selecting model: DarcyForchheimer
    creating porous zone: cz_solid_53
Selecting finite volume options model type explicitPorositySource
    Source: source54
    - selecting cells using cellZone cz_solid_54
    - selected 1964 cell(s) with volume 0.00214437
Porosity region source54:
    selecting model: DarcyForchheimer
    creating porous zone: cz_solid_54
Selecting finite volume options model type explicitPorositySource
    Source: source55
    - selecting cells using cellZone cz_solid_55
    - selected 2177 cell(s) with volume 0.00214207
Porosity region source55:
    selecting model: DarcyForchheimer
    creating porous zone: cz_solid_55
Selecting finite volume options model type explicitPorositySource
    Source: source56
    - selecting cells using cellZone cz_solid_56
    - selected 2321 cell(s) with volume 0.00214179
Porosity region source56:
    selecting model: DarcyForchheimer
    creating porous zone: cz_solid_56
Selecting finite volume options model type explicitPorositySource
    Source: source57
    - selecting cells using cellZone cz_solid_57
    - selected 2389 cell(s) with volume 0.00214558
Porosity region source57:
    selecting model: DarcyForchheimer
    creating porous zone: cz_solid_57
Selecting finite volume options model type explicitPorositySource
    Source: source58
    - selecting cells using cellZone cz_solid_58
    - selected 2417 cell(s) with volume 0.00214489
Porosity region source58:
    selecting model: DarcyForchheimer
    creating porous zone: cz_solid_58
Selecting finite volume options model type explicitPorositySource
    Source: source59
    - selecting cells using cellZone cz_solid_59
    - selected 1885 cell(s) with volume 0.00213931
Porosity region source59:
    selecting model: DarcyForchheimer
    creating porous zone: cz_solid_59
Selecting finite volume options model type explicitPorositySource
    Source: source60
    - selecting cells using cellZone cz_solid_60
    - selected 2374 cell(s) with volume 0.00214525
Porosity region source60:
    selecting model: DarcyForchheimer
    creating porous zone: cz_solid_60
Selecting finite volume options model type explicitPorositySource
    Source: source61
    - selecting cells using cellZone cz_solid_61
    - selected 2473 cell(s) with volume 0.0021419
Porosity region source61:
    selecting model: DarcyForchheimer
    creating porous zone: cz_solid_61
Selecting finite volume options model type explicitPorositySource
    Source: source62
    - selecting cells using cellZone cz_solid_62
    - selected 2346 cell(s) with volume 0.00214551
Porosity region source62:
    selecting model: DarcyForchheimer
    creating porous zone: cz_solid_62
Selecting finite volume options model type explicitPorositySource
    Source: source63
    - selecting cells using cellZone cz_solid_63
    - selected 2096 cell(s) with volume 0.00214076
Porosity region source63:
    selecting model: DarcyForchheimer
    creating porous zone: cz_solid_63
Selecting finite volume options model type explicitPorositySource
    Source: source64
    - selecting cells using cellZone cz_solid_64
    - selected 2326 cell(s) with volume 0.00214523
Porosity region source64:
    selecting model: DarcyForchheimer
    creating porous zone: cz_solid_64
Selecting finite volume options model type explicitPorositySource
    Source: source65
    - selecting cells using cellZone cz_solid_65
    - selected 1883 cell(s) with volume 0.00214184
Porosity region source65:
    selecting model: DarcyForchheimer
    creating porous zone: cz_solid_65
Selecting finite volume options model type explicitPorositySource
    Source: source66
    - selecting cells using cellZone cz_solid_66
    - selected 2198 cell(s) with volume 0.00214422
Porosity region source66:
    selecting model: DarcyForchheimer
    creating porous zone: cz_solid_66
Selecting finite volume options model type explicitPorositySource
    Source: source67
    - selecting cells using cellZone cz_solid_67
    - selected 2118 cell(s) with volume 0.00214472
Porosity region source67:
    selecting model: DarcyForchheimer
    creating porous zone: cz_solid_67
Selecting finite volume options model type explicitPorositySource
    Source: source68
    - selecting cells using cellZone cz_solid_68
    - selected 1727 cell(s) with volume 0.00214317
Porosity region source68:
    selecting model: DarcyForchheimer
    creating porous zone: cz_solid_68
Selecting finite volume options model type explicitPorositySource
    Source: source69
    - selecting cells using cellZone cz_solid_69
    - selected 2097 cell(s) with volume 0.00214273
Porosity region source69:
    selecting model: DarcyForchheimer
    creating porous zone: cz_solid_69
Selecting finite volume options model type explicitPorositySource
    Source: source70
    - selecting cells using cellZone cz_solid_70
    - selected 2309 cell(s) with volume 0.00214531
Porosity region source70:
    selecting model: DarcyForchheimer
    creating porous zone: cz_solid_70
Selecting finite volume options model type explicitPorositySource
    Source: source71
    - selecting cells using cellZone cz_solid_71
    - selected 2377 cell(s) with volume 0.00214364
Porosity region source71:
    selecting model: DarcyForchheimer
    creating porous zone: cz_solid_71
Selecting finite volume options model type explicitPorositySource
    Source: source72
    - selecting cells using cellZone cz_solid_72
    - selected 2393 cell(s) with volume 0.00214455
Porosity region source72:
    selecting model: DarcyForchheimer
    creating porous zone: cz_solid_72
Selecting finite volume options model type explicitPorositySource
    Source: source73
    - selecting cells using cellZone cz_solid_73
    - selected 1997 cell(s) with volume 0.00214273
Porosity region source73:
    selecting model: DarcyForchheimer
    creating porous zone: cz_solid_73
Selecting finite volume options model type explicitPorositySource
    Source: source74
    - selecting cells using cellZone cz_solid_74
    - selected 1891 cell(s) with volume 0.00214442
Porosity region source74:
    selecting model: DarcyForchheimer
    creating porous zone: cz_solid_74
Selecting finite volume options model type explicitPorositySource
    Source: source75
    - selecting cells using cellZone cz_solid_75
    - selected 2119 cell(s) with volume 0.00214206
Porosity region source75:
    selecting model: DarcyForchheimer
    creating porous zone: cz_solid_75
Selecting finite volume options model type explicitPorositySource
    Source: source76
    - selecting cells using cellZone cz_solid_76
    - selected 2244 cell(s) with volume 0.00214198
Porosity region source76:
    selecting model: DarcyForchheimer
    creating porous zone: cz_solid_76
Selecting finite volume options model type explicitPorositySource
    Source: source77
    - selecting cells using cellZone cz_solid_77
    - selected 2361 cell(s) with volume 0.00214543
Porosity region source77:
    selecting model: DarcyForchheimer
    creating porous zone: cz_solid_77
Selecting finite volume options model type explicitPorositySource
    Source: source78
    - selecting cells using cellZone cz_solid_78
    - selected 2382 cell(s) with volume 0.00214522
Porosity region source78:
    selecting model: DarcyForchheimer
    creating porous zone: cz_solid_78
Selecting finite volume options model type explicitPorositySource
    Source: source79
    - selecting cells using cellZone cz_solid_79
    - selected 1803 cell(s) with volume 0.00213921
Porosity region source79:
    selecting model: DarcyForchheimer
    creating porous zone: cz_solid_79
Selecting finite volume options model type explicitPorositySource
    Source: source80
    - selecting cells using cellZone cz_solid_80
    - selected 2374 cell(s) with volume 0.00214585
Porosity region source80:
    selecting model: DarcyForchheimer
    creating porous zone: cz_solid_80
Selecting finite volume options model type explicitPorositySource
    Source: source81
    - selecting cells using cellZone cz_solid_81
    - selected 2467 cell(s) with volume 0.00214326
Porosity region source81:
    selecting model: DarcyForchheimer
    creating porous zone: cz_solid_81
Selecting finite volume options model type explicitPorositySource
    Source: source82
    - selecting cells using cellZone cz_solid_82
    - selected 2343 cell(s) with volume 0.00214628
Porosity region source82:
    selecting model: DarcyForchheimer
    creating porous zone: cz_solid_82
Selecting finite volume options model type explicitPorositySource
    Source: source83
    - selecting cells using cellZone cz_solid_83
    - selected 2093 cell(s) with volume 0.00214149
Porosity region source83:
    selecting model: DarcyForchheimer
    creating porous zone: cz_solid_83
Selecting finite volume options model type explicitPorositySource
    Source: source84
    - selecting cells using cellZone cz_solid_84
    - selected 2326 cell(s) with volume 0.00214522
Porosity region source84:
    selecting model: DarcyForchheimer
    creating porous zone: cz_solid_84
Selecting finite volume options model type explicitPorositySource
    Source: source85
    - selecting cells using cellZone cz_solid_85
    - selected 1877 cell(s) with volume 0.0021423
Porosity region source85:
    selecting model: DarcyForchheimer
    creating porous zone: cz_solid_85
Selecting finite volume options model type explicitPorositySource
    Source: source86
    - selecting cells using cellZone cz_solid_86
    - selected 2189 cell(s) with volume 0.00214587
Porosity region source86:
    selecting model: DarcyForchheimer
    creating porous zone: cz_solid_86
Selecting finite volume options model type explicitPorositySource
    Source: source87
    - selecting cells using cellZone cz_solid_87
    - selected 2109 cell(s) with volume 0.0021461
Porosity region source87:
    selecting model: DarcyForchheimer
    creating porous zone: cz_solid_87
Selecting finite volume options model type explicitPorositySource
    Source: source88
    - selecting cells using cellZone cz_solid_88
    - selected 1718 cell(s) with volume 0.00214463
Porosity region source88:
    selecting model: DarcyForchheimer
    creating porous zone: cz_solid_88
Selecting finite volume options model type explicitPorositySource
    Source: source89
    - selecting cells using cellZone cz_solid_89
    - selected 2091 cell(s) with volume 0.00214371
Porosity region source89:
    selecting model: DarcyForchheimer
    creating porous zone: cz_solid_89
Selecting finite volume options model type explicitPorositySource
    Source: source90
    - selecting cells using cellZone cz_solid_90
    - selected 2303 cell(s) with volume 0.00214595
Porosity region source90:
    selecting model: DarcyForchheimer
    creating porous zone: cz_solid_90
Selecting finite volume options model type explicitPorositySource
    Source: source91
    - selecting cells using cellZone cz_solid_91
    - selected 2374 cell(s) with volume 0.00214448
Porosity region source91:
    selecting model: DarcyForchheimer
    creating porous zone: cz_solid_91
Selecting finite volume options model type explicitPorositySource
    Source: source92
    - selecting cells using cellZone cz_solid_92
    - selected 2393 cell(s) with volume 0.00214482
Porosity region source92:
    selecting model: DarcyForchheimer
    creating porous zone: cz_solid_92
Selecting finite volume options model type explicitPorositySource
    Source: source93
    - selecting cells using cellZone cz_solid_93
    - selected 1991 cell(s) with volume 0.00214368
Porosity region source93:
    selecting model: DarcyForchheimer
    creating porous zone: cz_solid_93
Selecting finite volume options model type explicitPorositySource
    Source: source94
    - selecting cells using cellZone cz_solid_94
    - selected 1882 cell(s) with volume 0.00214594
Porosity region source94:
    selecting model: DarcyForchheimer
    creating porous zone: cz_solid_94
Selecting finite volume options model type explicitPorositySource
    Source: source95
    - selecting cells using cellZone cz_solid_95
    - selected 2119 cell(s) with volume 0.00214264
Porosity region source95:
    selecting model: DarcyForchheimer
    creating porous zone: cz_solid_95
Selecting finite volume options model type explicitPorositySource
    Source: source96
    - selecting cells using cellZone cz_solid_96
    - selected 2241 cell(s) with volume 0.00214273
Porosity region source96:
    selecting model: DarcyForchheimer
    creating porous zone: cz_solid_96
Selecting finite volume options model type explicitPorositySource
    Source: source97
    - selecting cells using cellZone cz_solid_97
    - selected 2361 cell(s) with volume 0.00214577
Porosity region source97:
    selecting model: DarcyForchheimer
    creating porous zone: cz_solid_97
Selecting finite volume options model type explicitPorositySource
    Source: source98
    - selecting cells using cellZone cz_solid_98
    - selected 2376 cell(s) with volume 0.00214595
Porosity region source98:
    selecting model: DarcyForchheimer
    creating porous zone: cz_solid_98
Selecting finite volume options model type explicitPorositySource
    Source: source99
    - selecting cells using cellZone cz_solid_99
    - selected 1797 cell(s) with volume 0.00214032
Porosity region source99:
    selecting model: DarcyForchheimer
    creating porous zone: cz_solid_99

Starting time loop

forces porousforces:
--> FOAM Warning : 
    From function Foam::labelHashSet Foam::polyBoundaryMesh::patchSet(const Foam::UList<Foam::wordRe>&, bool, bool) const
    in file meshes/polyMesh/polyBoundaryMesh/polyBoundaryMesh.C at line 798
    Cannot find any patch or group names matching solid_to_fluid
    Including porosity effects


surfaceFieldValue massFlowAtFilter_0:
    total faces  = 1950
    total area   = 0.101737




surfaceFieldValue massFlowAtFilter_1:
    total faces  = 1802
    total area   = 0.101672




surfaceFieldValue massFlowAtFilter_2:
    total faces  = 1953
    total area   = 0.101718




surfaceFieldValue massFlowAtFilter_3:
    total faces  = 1690
    total area   = 0.101676




surfaceFieldValue massFlowAtFilter_4:
    total faces  = 1822
    total area   = 0.101828




surfaceFieldValue massFlowAtFilter_5:
    total faces  = 1697
    total area   = 0.101772




surfaceFieldValue massFlowAtFilter_6:
    total faces  = 1814
    total area   = 0.101924




surfaceFieldValue massFlowAtFilter_7:
    total faces  = 1867
    total area   = 0.101723




surfaceFieldValue massFlowAtFilter_8:
    total faces  = 1711
    total area   = 0.101702




surfaceFieldValue massFlowAtFilter_9:
    total faces  = 1672
    total area   = 0.101727




surfaceFieldValue massFlowAtFilter_10:
    total faces  = 1868
    total area   = 0.10175




surfaceFieldValue massFlowAtFilter_11:
    total faces  = 1795
    total area   = 0.101721




surfaceFieldValue massFlowAtFilter_12:
    total faces  = 1844
    total area   = 0.101731




surfaceFieldValue massFlowAtFilter_13:
    total faces  = 1658
    total area   = 0.10173




surfaceFieldValue massFlowAtFilter_14:
    total faces  = 1794
    total area   = 0.10173




surfaceFieldValue massFlowAtFilter_15:
    total faces  = 1777
    total area   = 0.101751




surfaceFieldValue massFlowAtFilter_16:
    total faces  = 1747
    total area   = 0.10169




surfaceFieldValue massFlowAtFilter_17:
    total faces  = 1833
    total area   = 0.101818




surfaceFieldValue massFlowAtFilter_18:
    total faces  = 1834
    total area   = 0.101819




surfaceFieldValue massFlowAtFilter_19:
    total faces  = 1612
    total area   = 0.10165




surfaceFieldValue massFlowAtFilter_20:
    total faces  = 1932
    total area   = 0.101593




surfaceFieldValue massFlowAtFilter_21:
    total faces  = 1782
    total area   = 0.101628




surfaceFieldValue massFlowAtFilter_22:
    total faces  = 1932
    total area   = 0.10163




surfaceFieldValue massFlowAtFilter_23:
    total faces  = 1676
    total area   = 0.10163




surfaceFieldValue massFlowAtFilter_24:
    total faces  = 1806
    total area   = 0.101644




surfaceFieldValue massFlowAtFilter_25:
    total faces  = 1686
    total area   = 0.101577




surfaceFieldValue massFlowAtFilter_26:
    total faces  = 1798
    total area   = 0.101829




surfaceFieldValue massFlowAtFilter_27:
    total faces  = 1852
    total area   = 0.101656




surfaceFieldValue massFlowAtFilter_28:
    total faces  = 1698
    total area   = 0.101669




surfaceFieldValue massFlowAtFilter_29:
    total faces  = 1652
    total area   = 0.101686




surfaceFieldValue massFlowAtFilter_30:
    total faces  = 1858
    total area   = 0.10173




surfaceFieldValue massFlowAtFilter_31:
    total faces  = 1784
    total area   = 0.101695




surfaceFieldValue massFlowAtFilter_32:
    total faces  = 1822
    total area   = 0.101711




surfaceFieldValue massFlowAtFilter_33:
    total faces  = 1638
    total area   = 0.101691




surfaceFieldValue massFlowAtFilter_34:
    total faces  = 1784
    total area   = 0.101694




surfaceFieldValue massFlowAtFilter_35:
    total faces  = 1758
    total area   = 0.101583




surfaceFieldValue massFlowAtFilter_36:
    total faces  = 1736
    total area   = 0.101646




surfaceFieldValue massFlowAtFilter_37:
    total faces  = 1818
    total area   = 0.101617




surfaceFieldValue massFlowAtFilter_38:
    total faces  = 1812
    total area   = 0.101651




surfaceFieldValue massFlowAtFilter_39:
    total faces  = 1598
    total area   = 0.101591




surfaceFieldValue massFlowAtFilter_40:
    total faces  = 1980
    total area   = 0.101733




surfaceFieldValue massFlowAtFilter_41:
    total faces  = 1826
    total area   = 0.101673




surfaceFieldValue massFlowAtFilter_42:
    total faces  = 1980
    total area   = 0.10171




surfaceFieldValue massFlowAtFilter_43:
    total faces  = 1720
    total area   = 0.101667




surfaceFieldValue massFlowAtFilter_44:
    total faces  = 1852
    total area   = 0.101828




surfaceFieldValue massFlowAtFilter_45:
    total faces  = 1733
    total area   = 0.101804




surfaceFieldValue massFlowAtFilter_46:
    total faces  = 1844
    total area   = 0.101916




surfaceFieldValue massFlowAtFilter_47:
    total faces  = 1900
    total area   = 0.101727




surfaceFieldValue massFlowAtFilter_48:
    total faces  = 1744
    total area   = 0.10169




surfaceFieldValue massFlowAtFilter_49:
    total faces  = 1696
    total area   = 0.101734




surfaceFieldValue massFlowAtFilter_50:
    total faces  = 1904
    total area   = 0.101747




surfaceFieldValue massFlowAtFilter_51:
    total faces  = 1828
    total area   = 0.101713




surfaceFieldValue massFlowAtFilter_52:
    total faces  = 1868
    total area   = 0.101737




surfaceFieldValue massFlowAtFilter_53:
    total faces  = 1682
    total area   = 0.101734




surfaceFieldValue massFlowAtFilter_54:
    total faces  = 1830
    total area   = 0.10172




surfaceFieldValue massFlowAtFilter_55:
    total faces  = 1804
    total area   = 0.101748




surfaceFieldValue massFlowAtFilter_56:
    total faces  = 1780
    total area   = 0.101681




surfaceFieldValue massFlowAtFilter_57:
    total faces  = 1863
    total area   = 0.101849




surfaceFieldValue massFlowAtFilter_58:
    total faces  = 1858
    total area   = 0.101819




surfaceFieldValue massFlowAtFilter_59:
    total faces  = 1642
    total area   = 0.10165




surfaceFieldValue massFlowAtFilter_60:
    total faces  = 1980
    total area   = 0.101733




surfaceFieldValue massFlowAtFilter_61:
    total faces  = 1826
    total area   = 0.101673




surfaceFieldValue massFlowAtFilter_62:
    total faces  = 1980
    total area   = 0.101692




surfaceFieldValue massFlowAtFilter_63:
    total faces  = 1714
    total area   = 0.101658




surfaceFieldValue massFlowAtFilter_64:
    total faces  = 1849
    total area   = 0.101795




surfaceFieldValue massFlowAtFilter_65:
    total faces  = 1718
    total area   = 0.101764




surfaceFieldValue massFlowAtFilter_66:
    total faces  = 1849
    total area   = 0.101822




surfaceFieldValue massFlowAtFilter_67:
    total faces  = 1910
    total area   = 0.101725




surfaceFieldValue massFlowAtFilter_68:
    total faces  = 1736
    total area   = 0.101707




surfaceFieldValue massFlowAtFilter_69:
    total faces  = 1693
    total area   = 0.101724




surfaceFieldValue massFlowAtFilter_70:
    total faces  = 1904
    total area   = 0.101733




surfaceFieldValue massFlowAtFilter_71:
    total faces  = 1828
    total area   = 0.101717




surfaceFieldValue massFlowAtFilter_72:
    total faces  = 1865
    total area   = 0.101727




surfaceFieldValue massFlowAtFilter_73:
    total faces  = 1673
    total area   = 0.101727




surfaceFieldValue massFlowAtFilter_74:
    total faces  = 1828
    total area   = 0.101723




surfaceFieldValue massFlowAtFilter_75:
    total faces  = 1805
    total area   = 0.101745




surfaceFieldValue massFlowAtFilter_76:
    total faces  = 1771
    total area   = 0.10167




surfaceFieldValue massFlowAtFilter_77:
    total faces  = 1863
    total area   = 0.101795




surfaceFieldValue massFlowAtFilter_78:
    total faces  = 1861
    total area   = 0.101809




surfaceFieldValue massFlowAtFilter_79:
    total faces  = 1630
    total area   = 0.101641




surfaceFieldValue massFlowAtFilter_80:
    total faces  = 1980
    total area   = 0.101654




surfaceFieldValue massFlowAtFilter_81:
    total faces  = 1832
    total area   = 0.101551




surfaceFieldValue massFlowAtFilter_82:
    total faces  = 1985
    total area   = 0.101595




surfaceFieldValue massFlowAtFilter_83:
    total faces  = 1719
    total area   = 0.101555




surfaceFieldValue massFlowAtFilter_84:
    total faces  = 1849
    total area   = 0.101649




surfaceFieldValue massFlowAtFilter_85:
    total faces  = 1724
    total area   = 0.101605




surfaceFieldValue massFlowAtFilter_86:
    total faces  = 1856
    total area   = 0.101701




surfaceFieldValue massFlowAtFilter_87:
    total faces  = 1917
    total area   = 0.101595




surfaceFieldValue massFlowAtFilter_88:
    total faces  = 1743
    total area   = 0.101591




surfaceFieldValue massFlowAtFilter_89:
    total faces  = 1699
    total area   = 0.101634




surfaceFieldValue massFlowAtFilter_90:
    total faces  = 1910
    total area   = 0.101639




surfaceFieldValue massFlowAtFilter_91:
    total faces  = 1833
    total area   = 0.101618




surfaceFieldValue massFlowAtFilter_92:
    total faces  = 1865
    total area   = 0.101663




surfaceFieldValue massFlowAtFilter_93:
    total faces  = 1679
    total area   = 0.101622




surfaceFieldValue massFlowAtFilter_94:
    total faces  = 1835
    total area   = 0.101574




surfaceFieldValue massFlowAtFilter_95:
    total faces  = 1805
    total area   = 0.101637




surfaceFieldValue massFlowAtFilter_96:
    total faces  = 1776
    total area   = 0.101574




surfaceFieldValue massFlowAtFilter_97:
    total faces  = 1863
    total area   = 0.101644




surfaceFieldValue massFlowAtFilter_98:
    total faces  = 1867
    total area   = 0.101641




surfaceFieldValue massFlowAtFilter_99:
    total faces  = 1636
    total area   = 0.101548


Time = 1

DILUPBiCG:  Solving for Ux, Initial residual = 1, Final residual = 1.9959e-06, No Iterations 6
DILUPBiCG:  Solving for Uy, Initial residual = 1, Final residual = 1.69363e-06, No Iterations 7
DILUPBiCG:  Solving for Uz, Initial residual = 1, Final residual = 5.67913e-06, No Iterations 6
DICPCG:  Solving for p, Initial residual = 1, Final residual = 0.0976574, No Iterations 320
DICPCG:  Solving for p, Initial residual = 0.00347383, Final residual = 0.000267274, No Iterations 4
DICPCG:  Solving for p, Initial residual = 0.000498446, Final residual = 4.87104e-05, No Iterations 41
time step continuity errors : sum local = 0.0498767, global = -0.000416059, cumulative = -0.000416059
DILUPBiCG:  Solving for epsilon, Initial residual = 0.0523971, Final residual = 9.72767e-06, No Iterations 3
DILUPBiCG:  Solving for k, Initial residual = 1, Final residual = 1.37019e-07, No Iterations 7
ExecutionTime = 6.77 s  ClockTime = 7 s

Time = 2

DILUPBiCG:  Solving for Ux, Initial residual = 0.000136627, Final residual = 4.16558e-06, No Iterations 2
DILUPBiCG:  Solving for Uy, Initial residual = 5.74214e-05, Final residual = 7.29691e-06, No Iterations 2
DILUPBiCG:  Solving for Uz, Initial residual = 0.000124094, Final residual = 2.5579e-06, No Iterations 2
DICPCG:  Solving for p, Initial residual = 0.0124616, Final residual = 0.00115281, No Iterations 120
DICPCG:  Solving for p, Initial residual = 0.00584991, Final residual = 0.000559244, No Iterations 208
DICPCG:  Solving for p, Initial residual = 0.00505843, Final residual = 0.000503389, No Iterations 23
time step continuity errors : sum local = 0.0602475, global = 0.00233225, cumulative = 0.00191619
DILUPBiCG:  Solving for epsilon, Initial residual = 0.0136793, Final residual = 9.87818e-07, No Iterations 4
DILUPBiCG:  Solving for k, Initial residual = 0.521426, Final residual = 4.38539e-07, No Iterations 6
ExecutionTime = 11.12 s  ClockTime = 11 s

Time = 3

DILUPBiCG:  Solving for Ux, Initial residual = 2.01109e-05, Final residual = 3.481e-06, No Iterations 1
DILUPBiCG:  Solving for Uy, Initial residual = 1.18264e-05, Final residual = 2.27139e-06, No Iterations 1
DILUPBiCG:  Solving for Uz, Initial residual = 2.98493e-05, Final residual = 8.90147e-06, No Iterations 1
DICPCG:  Solving for p, Initial residual = 0.0194285, Final residual = 0.00191465, No Iterations 296
DICPCG:  Solving for p, Initial residual = 0.00742569, Final residual = 0.000634938, No Iterations 4
DICPCG:  Solving for p, Initial residual = 0.00105712, Final residual = 0.000102965, No Iterations 34
time step continuity errors : sum local = 0.0540577, global = 0.00149643, cumulative = 0.00341263
DILUPBiCG:  Solving for epsilon, Initial residual = 0.0179765, Final residual = 1.61603e-06, No Iterations 4
DILUPBiCG:  Solving for k, Initial residual = 0.260451, Final residual = 3.0109e-07, No Iterations 6
ExecutionTime = 15.21 s  ClockTime = 15 s

Time = 4

DILUPBiCG:  Solving for Ux, Initial residual = 5.41241e-06, Final residual = 5.41241e-06, No Iterations 0
DILUPBiCG:  Solving for Uy, Initial residual = 2.07992e-06, Final residual = 2.07992e-06, No Iterations 0
DILUPBiCG:  Solving for Uz, Initial residual = 6.83182e-06, Final residual = 6.83182e-06, No Iterations 0
DICPCG:  Solving for p, Initial residual = 0.0791199, Final residual = 0.00781303, No Iterations 304
DICPCG:  Solving for p, Initial residual = 0.00540428, Final residual = 0.000432782, No Iterations 4
DICPCG:  Solving for p, Initial residual = 0.000749602, Final residual = 7.34289e-05, No Iterations 42
time step continuity errors : sum local = 0.035506, global = 0.000275955, cumulative = 0.00368858
DILUPBiCG:  Solving for epsilon, Initial residual = 0.0172176, Final residual = 1.61082e-06, No Iterations 4
DILUPBiCG:  Solving for k, Initial residual = 0.152893, Final residual = 2.35128e-07, No Iterations 6
ExecutionTime = 19.39 s  ClockTime = 19 s

Time = 5

DILUPBiCG:  Solving for Ux, Initial residual = 1.63147e-05, Final residual = 3.44621e-06, No Iterations 1
DILUPBiCG:  Solving for Uy, Initial residual = 8.80449e-06, Final residual = 8.80449e-06, No Iterations 0
DILUPBiCG:  Solving for Uz, Initial residual = 1.50526e-05, Final residual = 3.74865e-06, No Iterations 1
DICPCG:  Solving for p, Initial residual = 0.0217603, Final residual = 0.00214502, No Iterations 48
DICPCG:  Solving for p, Initial residual = 0.00662968, Final residual = 0.000648727, No Iterations 264
DICPCG:  Solving for p, Initial residual = 0.00211922, Final residual = 0.000204656, No Iterations 6
time step continuity errors : sum local = 0.0620956, global = 0.000926176, cumulative = 0.00461476
DILUPBiCG:  Solving for epsilon, Initial residual = 0.0145419, Final residual = 1.0885e-06, No Iterations 4
DILUPBiCG:  Solving for k, Initial residual = 0.108904, Final residual = 9.96993e-07, No Iterations 5
ExecutionTime = 23.29 s  ClockTime = 23 s

Time = 6

DILUPBiCG:  Solving for Ux, Initial residual = 2.08651e-05, Final residual = 6.0379e-06, No Iterations 1
DILUPBiCG:  Solving for Uy, Initial residual = 1.28246e-05, Final residual = 2.51426e-06, No Iterations 1
DILUPBiCG:  Solving for Uz, Initial residual = 1.68782e-05, Final residual = 5.27432e-06, No Iterations 1
DICPCG:  Solving for p, Initial residual = 0.0246589, Final residual = 0.00235351, No Iterations 293
DICPCG:  Solving for p, Initial residual = 0.00810694, Final residual = 0.000775904, No Iterations 5
DICPCG:  Solving for p, Initial residual = 0.00117278, Final residual = 0.000110706, No Iterations 56
time step continuity errors : sum local = 0.0429699, global = -1.12634e-05, cumulative = 0.00460349
DILUPBiCG:  Solving for epsilon, Initial residual = 0.0131949, Final residual = 7.07447e-06, No Iterations 3
DILUPBiCG:  Solving for k, Initial residual = 0.0922352, Final residual = 7.47608e-07, No Iterations 5
ExecutionTime = 27.54 s  ClockTime = 28 s

Time = 7

DILUPBiCG:  Solving for Ux, Initial residual = 1.51852e-05, Final residual = 9.41668e-06, No Iterations 1
DILUPBiCG:  Solving for Uy, Initial residual = 4.16303e-06, Final residual = 4.16303e-06, No Iterations 0
DILUPBiCG:  Solving for Uz, Initial residual = 8.6313e-06, Final residual = 8.6313e-06, No Iterations 0
DICPCG:  Solving for p, Initial residual = 0.0913218, Final residual = 0.0087854, No Iterations 296
DICPCG:  Solving for p, Initial residual = 0.00474505, Final residual = 0.000441832, No Iterations 5
DICPCG:  Solving for p, Initial residual = 0.000675391, Final residual = 6.61967e-05, No Iterations 51
time step continuity errors : sum local = 0.0281255, global = -0.000323707, cumulative = 0.00427979
DILUPBiCG:  Solving for epsilon, Initial residual = 0.0122853, Final residual = 5.91748e-06, No Iterations 3
DILUPBiCG:  Solving for k, Initial residual = 0.0757383, Final residual = 9.49818e-07, No Iterations 5
ExecutionTime = 31.7 s  ClockTime = 32 s

Time = 8

DILUPBiCG:  Solving for Ux, Initial residual = 1.59624e-05, Final residual = 3.00177e-06, No Iterations 1
DILUPBiCG:  Solving for Uy, Initial residual = 1.09439e-05, Final residual = 2.13522e-06, No Iterations 1
DILUPBiCG:  Solving for Uz, Initial residual = 1.73068e-05, Final residual = 3.93562e-06, No Iterations 1
DICPCG:  Solving for p, Initial residual = 0.0269737, Final residual = 0.00267735, No Iterations 64
DICPCG:  Solving for p, Initial residual = 0.00765692, Final residual = 0.000744933, No Iterations 76
DICPCG:  Solving for p, Initial residual = 0.00182741, Final residual = 0.000174058, No Iterations 227
time step continuity errors : sum local = 0.0190945, global = -0.000643217, cumulative = 0.00363657
DILUPBiCG:  Solving for epsilon, Initial residual = 0.0124568, Final residual = 5.28132e-07, No Iterations 4
DILUPBiCG:  Solving for k, Initial residual = 0.0635258, Final residual = 4.17342e-08, No Iterations 6
ExecutionTime = 36.15 s  ClockTime = 36 s

Time = 9

DILUPBiCG:  Solving for Ux, Initial residual = 5.953e-06, Final residual = 5.953e-06, No Iterations 0
DILUPBiCG:  Solving for Uy, Initial residual = 6.26689e-06, Final residual = 6.26689e-06, No Iterations 0
DILUPBiCG:  Solving for Uz, Initial residual = 8.1869e-06, Final residual = 8.1869e-06, No Iterations 0
DICPCG:  Solving for p, Initial residual = 0.0213389, Final residual = 0.00206149, No Iterations 102
DICPCG:  Solving for p, Initial residual = 0.00805326, Final residual = 0.000755936, No Iterations 268
DICPCG:  Solving for p, Initial residual = 0.0179907, Final residual = 0.00173265, No Iterations 8
time step continuity errors : sum local = 0.0418987, global = 0.00117593, cumulative = 0.0048125
DILUPBiCG:  Solving for epsilon, Initial residual = 0.011482, Final residual = 8.99521e-06, No Iterations 3
DILUPBiCG:  Solving for k, Initial residual = 0.0564537, Final residual = 4.47609e-07, No Iterations 5
ExecutionTime = 40.5 s  ClockTime = 41 s

Time = 10

DILUPBiCG:  Solving for Ux, Initial residual = 3.92345e-06, Final residual = 3.92345e-06, No Iterations 0
DILUPBiCG:  Solving for Uy, Initial residual = 3.76681e-06, Final residual = 3.76681e-06, No Iterations 0
DILUPBiCG:  Solving for Uz, Initial residual = 4.66655e-06, Final residual = 4.66655e-06, No Iterations 0
DICPCG:  Solving for p, Initial residual = 0.0197548, Final residual = 0.00184275, No Iterations 296
DICPCG:  Solving for p, Initial residual = 0.00928451, Final residual = 0.000862203, No Iterations 5
DICPCG:  Solving for p, Initial residual = 0.0013465, Final residual = 0.000132994, No Iterations 55
time step continuity errors : sum local = 0.0109456, global = 2.42084e-06, cumulative = 0.00481492
DILUPBiCG:  Solving for epsilon, Initial residual = 0.0108697, Final residual = 8.89586e-06, No Iterations 3
DILUPBiCG:  Solving for k, Initial residual = 0.051362, Final residual = 5.60578e-08, No Iterations 6
ExecutionTime = 44.64 s  ClockTime = 45 s

Time = 11

DILUPBiCG:  Solving for Ux, Initial residual = 5.64285e-06, Final residual = 5.64285e-06, No Iterations 0
DILUPBiCG:  Solving for Uy, Initial residual = 1.38744e-06, Final residual = 1.38744e-06, No Iterations 0
DILUPBiCG:  Solving for Uz, Initial residual = 4.73105e-06, Final residual = 4.73105e-06, No Iterations 0
DICPCG:  Solving for p, Initial residual = 0.0351029, Final residual = 0.00348547, No Iterations 297
DICPCG:  Solving for p, Initial residual = 0.00538721, Final residual = 0.000511098, No Iterations 5
DICPCG:  Solving for p, Initial residual = 0.000777621, Final residual = 7.77025e-05, No Iterations 54
time step continuity errors : sum local = 0.00767501, global = 1.24027e-05, cumulative = 0.00482732
DILUPBiCG:  Solving for epsilon, Initial residual = 0.0102145, Final residual = 5.1033e-07, No Iterations 4
DILUPBiCG:  Solving for k, Initial residual = 0.047365, Final residual = 1.03965e-07, No Iterations 6
ExecutionTime = 48.84 s  ClockTime = 49 s

Time = 12

DILUPBiCG:  Solving for Ux, Initial residual = 6.86454e-06, Final residual = 6.86454e-06, No Iterations 0
DILUPBiCG:  Solving for Uy, Initial residual = 1.4166e-06, Final residual = 1.4166e-06, No Iterations 0
DILUPBiCG:  Solving for Uz, Initial residual = 5.67688e-06, Final residual = 5.67688e-06, No Iterations 0
DICPCG:  Solving for p, Initial residual = 0.0520507, Final residual = 0.00495392, No Iterations 290
DICPCG:  Solving for p, Initial residual = 0.00408897, Final residual = 0.000394121, No Iterations 18
DICPCG:  Solving for p, Initial residual = 0.000763963, Final residual = 7.58272e-05, No Iterations 47
time step continuity errors : sum local = 0.00611814, global = 1.1197e-05, cumulative = 0.00483852
DILUPBiCG:  Solving for epsilon, Initial residual = 0.00963817, Final residual = 4.17561e-06, No Iterations 3
DILUPBiCG:  Solving for k, Initial residual = 0.0441746, Final residual = 1.16449e-07, No Iterations 6
ExecutionTime = 53.04 s  ClockTime = 53 s

Time = 13

DILUPBiCG:  Solving for Ux, Initial residual = 6.4169e-06, Final residual = 6.4169e-06, No Iterations 0
DILUPBiCG:  Solving for Uy, Initial residual = 2.34379e-06, Final residual = 2.34379e-06, No Iterations 0
DILUPBiCG:  Solving for Uz, Initial residual = 5.884e-06, Final residual = 5.884e-06, No Iterations 0
DICPCG:  Solving for p, Initial residual = 0.0263369, Final residual = 0.00257639, No Iterations 57
DICPCG:  Solving for p, Initial residual = 0.00760794, Final residual = 0.000724444, No Iterations 65
DICPCG:  Solving for p, Initial residual = 0.00208674, Final residual = 0.000208127, No Iterations 270
time step continuity errors : sum local = 0.00752588, global = -3.14048e-05, cumulative = 0.00480712
DILUPBiCG:  Solving for epsilon, Initial residual = 0.00927482, Final residual = 4.90434e-06, No Iterations 3
DILUPBiCG:  Solving for k, Initial residual = 0.0415484, Final residual = 1.46463e-07, No Iterations 6
ExecutionTime = 57.5 s  ClockTime = 58 s

Time = 14

DILUPBiCG:  Solving for Ux, Initial residual = 4.69105e-06, Final residual = 4.69105e-06, No Iterations 0
DILUPBiCG:  Solving for Uy, Initial residual = 2.52557e-06, Final residual = 2.52557e-06, No Iterations 0
DILUPBiCG:  Solving for Uz, Initial residual = 4.75955e-06, Final residual = 4.75955e-06, No Iterations 0
DICPCG:  Solving for p, Initial residual = 0.0219338, Final residual = 0.00209193, No Iterations 98
DICPCG:  Solving for p, Initial residual = 0.00788858, Final residual = 0.000762205, No Iterations 265
DICPCG:  Solving for p, Initial residual = 0.0285097, Final residual = 0.00283611, No Iterations 8
time step continuity errors : sum local = 0.0142976, global = 7.92072e-05, cumulative = 0.00488632
DILUPBiCG:  Solving for epsilon, Initial residual = 0.00905152, Final residual = 7.5001e-06, No Iterations 3
DILUPBiCG:  Solving for k, Initial residual = 0.0392365, Final residual = 2.03686e-07, No Iterations 6
ExecutionTime = 61.79 s  ClockTime = 62 s

Time = 15

DILUPBiCG:  Solving for Ux, Initial residual = 2.98969e-06, Final residual = 2.98969e-06, No Iterations 0
DILUPBiCG:  Solving for Uy, Initial residual = 1.94278e-06, Final residual = 1.94278e-06, No Iterations 0
DILUPBiCG:  Solving for Uz, Initial residual = 3.22415e-06, Final residual = 3.22415e-06, No Iterations 0
DICPCG:  Solving for p, Initial residual = 0.0219371, Final residual = 0.00218551, No Iterations 295
DICPCG:  Solving for p, Initial residual = 0.0109075, Final residual = 0.00108549, No Iterations 18
DICPCG:  Solving for p, Initial residual = 0.00189077, Final residual = 0.000181049, No Iterations 53
time step continuity errors : sum local = 0.00520002, global = 2.38643e-05, cumulative = 0.00491019
DILUPBiCG:  Solving for epsilon, Initial residual = 0.00901443, Final residual = 5.76991e-07, No Iterations 4
DILUPBiCG:  Solving for k, Initial residual = 0.0371164, Final residual = 3.10572e-07, No Iterations 5
ExecutionTime = 66.05 s  ClockTime = 66 s

Time = 16

DILUPBiCG:  Solving for Ux, Initial residual = 2.6816e-06, Final residual = 2.6816e-06, No Iterations 0
DILUPBiCG:  Solving for Uy, Initial residual = 9.94467e-07, Final residual = 9.94467e-07, No Iterations 0
DILUPBiCG:  Solving for Uz, Initial residual = 2.70799e-06, Final residual = 2.70799e-06, No Iterations 0
DICPCG:  Solving for p, Initial residual = 0.0333349, Final residual = 0.00312943, No Iterations 298
DICPCG:  Solving for p, Initial residual = 0.00582131, Final residual = 0.000564615, No Iterations 5
DICPCG:  Solving for p, Initial residual = 0.000854145, Final residual = 8.43495e-05, No Iterations 59
time step continuity errors : sum local = 0.00353181, global = 7.25567e-06, cumulative = 0.00491744
DILUPBiCG:  Solving for epsilon, Initial residual = 0.00897867, Final residual = 5.61709e-07, No Iterations 4
DILUPBiCG:  Solving for k, Initial residual = 0.0351024, Final residual = 2.5606e-07, No Iterations 5
ExecutionTime = 70.27 s  ClockTime = 70 s

Time = 17

DILUPBiCG:  Solving for Ux, Initial residual = 2.90744e-06, Final residual = 2.90744e-06, No Iterations 0
DILUPBiCG:  Solving for Uy, Initial residual = 5.43809e-07, Final residual = 5.43809e-07, No Iterations 0
DILUPBiCG:  Solving for Uz, Initial residual = 2.91641e-06, Final residual = 2.91641e-06, No Iterations 0
DICPCG:  Solving for p, Initial residual = 0.0575939, Final residual = 0.00558531, No Iterations 295
DICPCG:  Solving for p, Initial residual = 0.00389704, Final residual = 0.000387262, No Iterations 18
DICPCG:  Solving for p, Initial residual = 0.000725381, Final residual = 7.17387e-05, No Iterations 42
time step continuity errors : sum local = 0.00286197, global = -1.3304e-05, cumulative = 0.00490414
DILUPBiCG:  Solving for epsilon, Initial residual = 0.00883054, Final residual = 8.23923e-07, No Iterations 4
DILUPBiCG:  Solving for k, Initial residual = 0.0331961, Final residual = 3.77678e-07, No Iterations 5
ExecutionTime = 74.43 s  ClockTime = 75 s

Time = 18

DILUPBiCG:  Solving for Ux, Initial residual = 2.72371e-06, Final residual = 2.72371e-06, No Iterations 0
DILUPBiCG:  Solving for Uy, Initial residual = 9.65759e-07, Final residual = 9.65759e-07, No Iterations 0
DILUPBiCG:  Solving for Uz, Initial residual = 3.04402e-06, Final residual = 3.04402e-06, No Iterations 0
DICPCG:  Solving for p, Initial residual = 0.0228216, Final residual = 0.0022201, No Iterations 48
DICPCG:  Solving for p, Initial residual = 0.00584648, Final residual = 0.000584021, No Iterations 262
DICPCG:  Solving for p, Initial residual = 0.0018782, Final residual = 0.000184963, No Iterations 8
time step continuity errors : sum local = 0.00517132, global = -0.000158686, cumulative = 0.00474545
DILUPBiCG:  Solving for epsilon, Initial residual = 0.00862035, Final residual = 9.10215e-07, No Iterations 4
DILUPBiCG:  Solving for k, Initial residual = 0.0314587, Final residual = 6.45923e-08, No Iterations 6
ExecutionTime = 78.31 s  ClockTime = 78 s

Time = 19

DILUPBiCG:  Solving for Ux, Initial residual = 2.19895e-06, Final residual = 2.19895e-06, No Iterations 0
DILUPBiCG:  Solving for Uy, Initial residual = 1.12388e-06, Final residual = 1.12388e-06, No Iterations 0
DILUPBiCG:  Solving for Uz, Initial residual = 2.78289e-06, Final residual = 2.78289e-06, No Iterations 0
DICPCG:  Solving for p, Initial residual = 0.0176993, Final residual = 0.00176373, No Iterations 88
DICPCG:  Solving for p, Initial residual = 0.00563818, Final residual = 0.000553336, No Iterations 252
DICPCG:  Solving for p, Initial residual = 0.00334401, Final residual = 0.000333854, No Iterations 12
time step continuity errors : sum local = 0.0042087, global = -4.56948e-05, cumulative = 0.00469976
DILUPBiCG:  Solving for epsilon, Initial residual = 0.00841922, Final residual = 7.8424e-07, No Iterations 4
DILUPBiCG:  Solving for k, Initial residual = 0.0299214, Final residual = 4.4233e-07, No Iterations 5
ExecutionTime = 82.43 s  ClockTime = 83 s

Time = 20

DILUPBiCG:  Solving for Ux, Initial residual = 1.76895e-06, Final residual = 1.76895e-06, No Iterations 0
DILUPBiCG:  Solving for Uy, Initial residual = 9.74161e-07, Final residual = 9.74161e-07, No Iterations 0
DILUPBiCG:  Solving for Uz, Initial residual = 2.35814e-06, Final residual = 2.35814e-06, No Iterations 0
DICPCG:  Solving for p, Initial residual = 0.0161677, Final residual = 0.00161155, No Iterations 289
DICPCG:  Solving for p, Initial residual = 0.0283519, Final residual = 0.00276866, No Iterations 32
DICPCG:  Solving for p, Initial residual = 0.00586866, Final residual = 0.000570917, No Iterations 51
time step continuity errors : sum local = 0.00247096, global = 3.47839e-05, cumulative = 0.00473454
DILUPBiCG:  Solving for epsilon, Initial residual = 0.00825129, Final residual = 6.69745e-07, No Iterations 4
DILUPBiCG:  Solving for k, Initial residual = 0.0285891, Final residual = 2.35841e-07, No Iterations 5
ExecutionTime = 86.76 s  ClockTime = 87 s

forces porousforces write:
    sum of forces:
        pressure : (0 0 0)
        viscous  : (0 0 0)
        porous   : (89437.4 -2.04357e-13 69531.6)
    sum of moments:
        pressure : (0 0 0)
        viscous  : (0 0 0)
        porous   : (62686.6 11597.8 -78571.8)

volFieldValue volFieldValue_0 write:
    volIntegrate(cz_solid_0) of U = (1.65652e-09 -3.03615e-09 -3.89979e-09)

surfaceFieldValue massFlowAtFilter_0 write:
    sum(fz_solid_0) of phi = -2.59375e-06

volFieldValue volFieldValue_1 write:
    volIntegrate(cz_solid_1) of U = (4.01189e-10 -2.77388e-09 -3.45443e-09)

surfaceFieldValue massFlowAtFilter_1 write:
    sum(fz_solid_1) of phi = 2.80215e-05

volFieldValue volFieldValue_2 write:
    volIntegrate(cz_solid_2) of U = (-5.7975e-10 -2.81132e-09 -2.95902e-09)

surfaceFieldValue massFlowAtFilter_2 write:
    sum(fz_solid_2) of phi = -9.85369e-07

volFieldValue volFieldValue_3 write:
    volIntegrate(cz_solid_3) of U = (-1.3854e-09 -2.73178e-09 -2.26736e-09)

surfaceFieldValue massFlowAtFilter_3 write:
    sum(fz_solid_3) of phi = -3.14073e-05

volFieldValue volFieldValue_4 write:
    volIntegrate(cz_solid_4) of U = (-2.09293e-09 -2.66221e-09 -1.566e-09)

surfaceFieldValue massFlowAtFilter_4 write:
    sum(fz_solid_4) of phi = -2.49894e-05

volFieldValue volFieldValue_5 write:
    volIntegrate(cz_solid_5) of U = (-2.70548e-09 -2.60062e-09 -7.59959e-10)

surfaceFieldValue massFlowAtFilter_5 write:
    sum(fz_solid_5) of phi = -5.66061e-05

volFieldValue volFieldValue_6 write:
    volIntegrate(cz_solid_6) of U = (-3.23787e-09 -2.52923e-09 1.98214e-10)

surfaceFieldValue massFlowAtFilter_6 write:
    sum(fz_solid_6) of phi = -3.75125e-05

volFieldValue volFieldValue_7 write:
    volIntegrate(cz_solid_7) of U = (-3.52654e-09 -2.47666e-09 1.4638e-09)

surfaceFieldValue massFlowAtFilter_7 write:
    sum(fz_solid_7) of phi = -4.13953e-05

volFieldValue volFieldValue_8 write:
    volIntegrate(cz_solid_8) of U = (-3.42164e-09 -2.48798e-09 2.78243e-09)

surfaceFieldValue massFlowAtFilter_8 write:
    sum(fz_solid_8) of phi = 1.04114e-05

volFieldValue volFieldValue_9 write:
    volIntegrate(cz_solid_9) of U = (-2.76528e-09 -2.41057e-09 4.1675e-09)

surfaceFieldValue massFlowAtFilter_9 write:
    sum(fz_solid_9) of phi = -6.05536e-05

volFieldValue volFieldValue_10 write:
    volIntegrate(cz_solid_10) of U = (-1.40385e-09 -2.30045e-09 5.40453e-09)

surfaceFieldValue massFlowAtFilter_10 write:
    sum(fz_solid_10) of phi = 1.7464e-05

volFieldValue volFieldValue_11 write:
    volIntegrate(cz_solid_11) of U = (1.7759e-10 -2.07876e-09 6.16147e-09)

surfaceFieldValue massFlowAtFilter_11 write:
    sum(fz_solid_11) of phi = -4.46853e-05

volFieldValue volFieldValue_12 write:
    volIntegrate(cz_solid_12) of U = (2.30745e-09 -1.94566e-09 6.46091e-09)

surfaceFieldValue massFlowAtFilter_12 write:
    sum(fz_solid_12) of phi = -0.000162501

volFieldValue volFieldValue_13 write:
    volIntegrate(cz_solid_13) of U = (4.50032e-09 -2.08837e-09 5.89958e-09)

surfaceFieldValue massFlowAtFilter_13 write:
    sum(fz_solid_13) of phi = 5.63444e-05

volFieldValue volFieldValue_14 write:
    volIntegrate(cz_solid_14) of U = (6.42683e-09 -2.88479e-09 4.58159e-09)

surfaceFieldValue massFlowAtFilter_14 write:
    sum(fz_solid_14) of phi = -7.77862e-05

volFieldValue volFieldValue_15 write:
    volIntegrate(cz_solid_15) of U = (7.61906e-09 -3.37611e-09 2.41896e-09)

surfaceFieldValue massFlowAtFilter_15 write:
    sum(fz_solid_15) of phi = 5.12767e-05

volFieldValue volFieldValue_16 write:
    volIntegrate(cz_solid_16) of U = (7.55776e-09 -3.72146e-09 5.05039e-11)

surfaceFieldValue massFlowAtFilter_16 write:
    sum(fz_solid_16) of phi = -9.21378e-05

volFieldValue volFieldValue_17 write:
    volIntegrate(cz_solid_17) of U = (6.5285e-09 -3.88446e-09 -2.01457e-09)

surfaceFieldValue massFlowAtFilter_17 write:
    sum(fz_solid_17) of phi = -1.16141e-06

volFieldValue volFieldValue_18 write:
    volIntegrate(cz_solid_18) of U = (5.0399e-09 -3.8016e-09 -3.26985e-09)

surfaceFieldValue massFlowAtFilter_18 write:
    sum(fz_solid_18) of phi = 6.55119e-05

volFieldValue volFieldValue_19 write:
    volIntegrate(cz_solid_19) of U = (3.27952e-09 -3.43083e-09 -3.92175e-09)

surfaceFieldValue massFlowAtFilter_19 write:
    sum(fz_solid_19) of phi = 6.28533e-05

volFieldValue volFieldValue_20 write:
    volIntegrate(cz_solid_20) of U = (1.48207e-09 -8.03193e-09 -3.29245e-09)

surfaceFieldValue massFlowAtFilter_20 write:
    sum(fz_solid_20) of phi = -1.04607e-05

volFieldValue volFieldValue_21 write:
    volIntegrate(cz_solid_21) of U = (3.63059e-10 -7.27112e-09 -2.91213e-09)

surfaceFieldValue massFlowAtFilter_21 write:
    sum(fz_solid_21) of phi = 2.39976e-05

volFieldValue volFieldValue_22 write:
    volIntegrate(cz_solid_22) of U = (-4.81621e-10 -7.1627e-09 -2.48057e-09)

surfaceFieldValue massFlowAtFilter_22 write:
    sum(fz_solid_22) of phi = 8.43329e-06

volFieldValue volFieldValue_23 write:
    volIntegrate(cz_solid_23) of U = (-1.17341e-09 -6.73506e-09 -1.87396e-09)

surfaceFieldValue massFlowAtFilter_23 write:
    sum(fz_solid_23) of phi = -1.33829e-05

volFieldValue volFieldValue_24 write:
    volIntegrate(cz_solid_24) of U = (-1.75754e-09 -6.6503e-09 -1.26577e-09)

surfaceFieldValue massFlowAtFilter_24 write:
    sum(fz_solid_24) of phi = -2.6422e-05

volFieldValue volFieldValue_25 write:
    volIntegrate(cz_solid_25) of U = (-2.2796e-09 -6.52168e-09 -5.90757e-10)

surfaceFieldValue massFlowAtFilter_25 write:
    sum(fz_solid_25) of phi = 3.43455e-06

volFieldValue volFieldValue_26 write:
    volIntegrate(cz_solid_26) of U = (-2.73869e-09 -6.47887e-09 2.28608e-10)

surfaceFieldValue massFlowAtFilter_26 write:
    sum(fz_solid_26) of phi = -1.83647e-06

volFieldValue volFieldValue_27 write:
    volIntegrate(cz_solid_27) of U = (-2.98087e-09 -6.77866e-09 1.33317e-09)

surfaceFieldValue massFlowAtFilter_27 write:
    sum(fz_solid_27) of phi = 7.02424e-06

volFieldValue volFieldValue_28 write:
    volIntegrate(cz_solid_28) of U = (-2.88537e-09 -7.26653e-09 2.49044e-09)

surfaceFieldValue massFlowAtFilter_28 write:
    sum(fz_solid_28) of phi = -4.85651e-06

volFieldValue volFieldValue_29 write:
    volIntegrate(cz_solid_29) of U = (-2.30674e-09 -7.83322e-09 3.714e-09)

surfaceFieldValue massFlowAtFilter_29 write:
    sum(fz_solid_29) of phi = 6.61139e-05

volFieldValue volFieldValue_30 write:
    volIntegrate(cz_solid_30) of U = (-1.09468e-09 -8.82821e-09 4.84672e-09)

surfaceFieldValue massFlowAtFilter_30 write:
    sum(fz_solid_30) of phi = 3.642e-05

volFieldValue volFieldValue_31 write:
    volIntegrate(cz_solid_31) of U = (3.21823e-10 -9.99277e-09 5.55773e-09)

surfaceFieldValue massFlowAtFilter_31 write:
    sum(fz_solid_31) of phi = -1.47181e-05

volFieldValue volFieldValue_32 write:
    volIntegrate(cz_solid_32) of U = (2.24531e-09 -1.16544e-08 5.85853e-09)

surfaceFieldValue massFlowAtFilter_32 write:
    sum(fz_solid_32) of phi = -2.69078e-05

volFieldValue volFieldValue_33 write:
    volIntegrate(cz_solid_33) of U = (4.24792e-09 -1.28228e-08 5.39939e-09)

surfaceFieldValue massFlowAtFilter_33 write:
    sum(fz_solid_33) of phi = 1.63724e-05

volFieldValue volFieldValue_34 write:
    volIntegrate(cz_solid_34) of U = (6.01664e-09 -1.38507e-08 4.25518e-09)

surfaceFieldValue massFlowAtFilter_34 write:
    sum(fz_solid_34) of phi = -3.86668e-05

volFieldValue volFieldValue_35 write:
    volIntegrate(cz_solid_35) of U = (7.07565e-09 -1.43056e-08 2.40024e-09)

surfaceFieldValue massFlowAtFilter_35 write:
    sum(fz_solid_35) of phi = 4.72059e-05

volFieldValue volFieldValue_36 write:
    volIntegrate(cz_solid_36) of U = (7.00541e-09 -1.35725e-08 3.17294e-10)

surfaceFieldValue massFlowAtFilter_36 write:
    sum(fz_solid_36) of phi = -1.17239e-05

volFieldValue volFieldValue_37 write:
    volIntegrate(cz_solid_37) of U = (6.00726e-09 -1.19001e-08 -1.53653e-09)

surfaceFieldValue massFlowAtFilter_37 write:
    sum(fz_solid_37) of phi = 9.43921e-05

volFieldValue volFieldValue_38 write:
    volIntegrate(cz_solid_38) of U = (4.60404e-09 -1.05499e-08 -2.69306e-09)

surfaceFieldValue massFlowAtFilter_38 write:
    sum(fz_solid_38) of phi = 7.66957e-05

volFieldValue volFieldValue_39 write:
    volIntegrate(cz_solid_39) of U = (2.96596e-09 -9.38184e-09 -3.30875e-09)

surfaceFieldValue massFlowAtFilter_39 write:
    sum(fz_solid_39) of phi = 3.75352e-05

volFieldValue volFieldValue_40 write:
    volIntegrate(cz_solid_40) of U = (9.44374e-10 -8.46051e-09 -1.58844e-09)

surfaceFieldValue massFlowAtFilter_40 write:
    sum(fz_solid_40) of phi = 1.98418e-05

volFieldValue volFieldValue_41 write:
    volIntegrate(cz_solid_41) of U = (2.86829e-10 -7.60225e-09 -1.45913e-09)

surfaceFieldValue massFlowAtFilter_41 write:
    sum(fz_solid_41) of phi = 3.19118e-05

volFieldValue volFieldValue_42 write:
    volIntegrate(cz_solid_42) of U = (-2.08244e-10 -7.47704e-09 -1.24839e-09)

surfaceFieldValue massFlowAtFilter_42 write:
    sum(fz_solid_42) of phi = 3.60989e-06

volFieldValue volFieldValue_43 write:
    volIntegrate(cz_solid_43) of U = (-6.23453e-10 -7.06234e-09 -9.12977e-10)

surfaceFieldValue massFlowAtFilter_43 write:
    sum(fz_solid_43) of phi = 9.66266e-06

volFieldValue volFieldValue_44 write:
    volIntegrate(cz_solid_44) of U = (-9.98123e-10 -6.98216e-09 -5.67181e-10)

surfaceFieldValue massFlowAtFilter_44 write:
    sum(fz_solid_44) of phi = -1.08524e-06

volFieldValue volFieldValue_45 write:
    volIntegrate(cz_solid_45) of U = (-1.35208e-09 -6.85227e-09 -1.79042e-10)

surfaceFieldValue massFlowAtFilter_45 write:
    sum(fz_solid_45) of phi = 6.49266e-06

volFieldValue volFieldValue_46 write:
    volIntegrate(cz_solid_46) of U = (-1.66622e-09 -6.78817e-09 3.35426e-10)

surfaceFieldValue massFlowAtFilter_46 write:
    sum(fz_solid_46) of phi = 4.95411e-06

volFieldValue volFieldValue_47 write:
    volIntegrate(cz_solid_47) of U = (-1.80488e-09 -7.00638e-09 1.07059e-09)

surfaceFieldValue massFlowAtFilter_47 write:
    sum(fz_solid_47) of phi = 5.49121e-06

volFieldValue volFieldValue_48 write:
    volIntegrate(cz_solid_48) of U = (-1.70146e-09 -7.45787e-09 1.83602e-09)

surfaceFieldValue massFlowAtFilter_48 write:
    sum(fz_solid_48) of phi = -5.83871e-06

volFieldValue volFieldValue_49 write:
    volIntegrate(cz_solid_49) of U = (-1.24051e-09 -7.90354e-09 2.64471e-09)

surfaceFieldValue massFlowAtFilter_49 write:
    sum(fz_solid_49) of phi = 3.95282e-05

volFieldValue volFieldValue_50 write:
    volIntegrate(cz_solid_50) of U = (-3.09691e-10 -8.62756e-09 3.36991e-09)

surfaceFieldValue massFlowAtFilter_50 write:
    sum(fz_solid_50) of phi = 2.95538e-05

volFieldValue volFieldValue_51 write:
    volIntegrate(cz_solid_51) of U = (7.26557e-10 -9.65571e-09 3.77083e-09)

surfaceFieldValue massFlowAtFilter_51 write:
    sum(fz_solid_51) of phi = 1.06267e-05

volFieldValue volFieldValue_52 write:
    volIntegrate(cz_solid_52) of U = (2.10412e-09 -1.12929e-08 3.91491e-09)

surfaceFieldValue massFlowAtFilter_52 write:
    sum(fz_solid_52) of phi = 6.14856e-06

volFieldValue volFieldValue_53 write:
    volIntegrate(cz_solid_53) of U = (3.53971e-09 -1.32931e-08 3.66639e-09)

surfaceFieldValue massFlowAtFilter_53 write:
    sum(fz_solid_53) of phi = 5.11619e-05

volFieldValue volFieldValue_54 write:
    volIntegrate(cz_solid_54) of U = (4.93618e-09 -1.56585e-08 3.16375e-09)

surfaceFieldValue massFlowAtFilter_54 write:
    sum(fz_solid_54) of phi = -1.36147e-05

volFieldValue volFieldValue_55 write:
    volIntegrate(cz_solid_55) of U = (5.87473e-09 -1.7971e-08 2.28654e-09)

surfaceFieldValue massFlowAtFilter_55 write:
    sum(fz_solid_55) of phi = 2.51355e-05

volFieldValue volFieldValue_56 write:
    volIntegrate(cz_solid_56) of U = (5.53976e-09 -1.78434e-08 1.35208e-09)

surfaceFieldValue massFlowAtFilter_56 write:
    sum(fz_solid_56) of phi = 2.90233e-05

volFieldValue volFieldValue_57 write:
    volIntegrate(cz_solid_57) of U = (4.21378e-09 -1.44851e-08 2.43035e-10)

surfaceFieldValue massFlowAtFilter_57 write:
    sum(fz_solid_57) of phi = 4.39397e-05

volFieldValue volFieldValue_58 write:
    volIntegrate(cz_solid_58) of U = (2.88346e-09 -1.16881e-08 -9.3365e-10)

surfaceFieldValue massFlowAtFilter_58 write:
    sum(fz_solid_58) of phi = 4.93903e-05

volFieldValue volFieldValue_59 write:
    volIntegrate(cz_solid_59) of U = (1.81861e-09 -1.00175e-08 -1.48884e-09)

surfaceFieldValue massFlowAtFilter_59 write:
    sum(fz_solid_59) of phi = 5.00857e-05

volFieldValue volFieldValue_60 write:
    volIntegrate(cz_solid_60) of U = (3.78227e-11 -6.39634e-09 1.87894e-10)

surfaceFieldValue massFlowAtFilter_60 write:
    sum(fz_solid_60) of phi = -1.19298e-05

volFieldValue volFieldValue_61 write:
    volIntegrate(cz_solid_61) of U = (4.02494e-11 -5.54898e-09 -4.48873e-11)

surfaceFieldValue massFlowAtFilter_61 write:
    sum(fz_solid_61) of phi = -5.4617e-06

volFieldValue volFieldValue_62 write:
    volIntegrate(cz_solid_62) of U = (-6.38009e-11 -5.32453e-09 -1.10794e-10)

surfaceFieldValue massFlowAtFilter_62 write:
    sum(fz_solid_62) of phi = -1.21637e-05

volFieldValue volFieldValue_63 write:
    volIntegrate(cz_solid_63) of U = (-2.31236e-10 -4.85822e-09 -6.33876e-11)

surfaceFieldValue massFlowAtFilter_63 write:
    sum(fz_solid_63) of phi = -1.19387e-05

volFieldValue volFieldValue_64 write:
    volIntegrate(cz_solid_64) of U = (-4.47102e-10 -4.75645e-09 1.74142e-11)

surfaceFieldValue massFlowAtFilter_64 write:
    sum(fz_solid_64) of phi = -1.28943e-05

volFieldValue volFieldValue_65 write:
    volIntegrate(cz_solid_65) of U = (-6.77376e-10 -4.63189e-09 1.53302e-10)

surfaceFieldValue massFlowAtFilter_65 write:
    sum(fz_solid_65) of phi = -1.59317e-05

volFieldValue volFieldValue_66 write:
    volIntegrate(cz_solid_66) of U = (-9.00304e-10 -4.58401e-09 4.39205e-10)

surfaceFieldValue massFlowAtFilter_66 write:
    sum(fz_solid_66) of phi = -2.38933e-05

volFieldValue volFieldValue_67 write:
    volIntegrate(cz_solid_67) of U = (-9.90641e-10 -4.71242e-09 9.21552e-10)

surfaceFieldValue massFlowAtFilter_67 write:
    sum(fz_solid_67) of phi = -1.8336e-05

volFieldValue volFieldValue_68 write:
    volIntegrate(cz_solid_68) of U = (-9.05506e-10 -4.98348e-09 1.44428e-09)

surfaceFieldValue massFlowAtFilter_68 write:
    sum(fz_solid_68) of phi = -3.32015e-05

volFieldValue volFieldValue_69 write:
    volIntegrate(cz_solid_69) of U = (-5.37141e-10 -5.32495e-09 2.05006e-09)

surfaceFieldValue massFlowAtFilter_69 write:
    sum(fz_solid_69) of phi = -1.66596e-07

volFieldValue volFieldValue_70 write:
    volIntegrate(cz_solid_70) of U = (2.38062e-10 -5.9003e-09 2.63918e-09)

surfaceFieldValue massFlowAtFilter_70 write:
    sum(fz_solid_70) of phi = 5.66999e-06

volFieldValue volFieldValue_71 write:
    volIntegrate(cz_solid_71) of U = (1.13915e-09 -6.89376e-09 2.99355e-09)

surfaceFieldValue massFlowAtFilter_71 write:
    sum(fz_solid_71) of phi = -4.57546e-06

volFieldValue volFieldValue_72 write:
    volIntegrate(cz_solid_72) of U = (2.49364e-09 -8.61533e-09 3.15905e-09)

surfaceFieldValue massFlowAtFilter_72 write:
    sum(fz_solid_72) of phi = -2.121e-05

volFieldValue volFieldValue_73 write:
    volIntegrate(cz_solid_73) of U = (4.17239e-09 -1.11936e-08 3.08656e-09)

surfaceFieldValue massFlowAtFilter_73 write:
    sum(fz_solid_73) of phi = 2.72613e-06

volFieldValue volFieldValue_74 write:
    volIntegrate(cz_solid_74) of U = (6.46658e-09 -1.54124e-08 2.82922e-09)

surfaceFieldValue massFlowAtFilter_74 write:
    sum(fz_solid_74) of phi = -7.11696e-05

volFieldValue volFieldValue_75 write:
    volIntegrate(cz_solid_75) of U = (9.14992e-09 -2.28024e-08 1.91907e-09)

surfaceFieldValue massFlowAtFilter_75 write:
    sum(fz_solid_75) of phi = -7.22132e-05

volFieldValue volFieldValue_76 write:
    volIntegrate(cz_solid_76) of U = (1.01213e-08 -3.42071e-08 1.38834e-09)

surfaceFieldValue massFlowAtFilter_76 write:
    sum(fz_solid_76) of phi = -0.000102095

volFieldValue volFieldValue_77 write:
    volIntegrate(cz_solid_77) of U = (3.95289e-09 -2.94297e-08 7.66364e-09)

surfaceFieldValue massFlowAtFilter_77 write:
    sum(fz_solid_77) of phi = -4.90124e-05

volFieldValue volFieldValue_78 write:
    volIntegrate(cz_solid_78) of U = (-2.21539e-09 -1.08409e-08 1.25839e-09)

surfaceFieldValue massFlowAtFilter_78 write:
    sum(fz_solid_78) of phi = -4.25296e-05

volFieldValue volFieldValue_79 write:
    volIntegrate(cz_solid_79) of U = (-4.52999e-10 -7.41061e-09 5.27642e-10)

surfaceFieldValue massFlowAtFilter_79 write:
    sum(fz_solid_79) of phi = -1.51076e-05

volFieldValue volFieldValue_80 write:
    volIntegrate(cz_solid_80) of U = (-6.68793e-10 -3.27845e-09 1.26134e-09)

surfaceFieldValue massFlowAtFilter_80 write:
    sum(fz_solid_80) of phi = -4.66914e-06

volFieldValue volFieldValue_81 write:
    volIntegrate(cz_solid_81) of U = (-1.98931e-10 -2.70104e-09 8.03711e-10)

surfaceFieldValue massFlowAtFilter_81 write:
    sum(fz_solid_81) of phi = -2.63404e-06

volFieldValue volFieldValue_82 write:
    volIntegrate(cz_solid_82) of U = (-5.35729e-11 -2.39889e-09 5.34181e-10)

surfaceFieldValue massFlowAtFilter_82 write:
    sum(fz_solid_82) of phi = 2.64486e-06

volFieldValue volFieldValue_83 write:
    volIntegrate(cz_solid_83) of U = (-8.22945e-11 -2.10596e-09 3.98571e-10)

surfaceFieldValue massFlowAtFilter_83 write:
    sum(fz_solid_83) of phi = -8.18829e-06

volFieldValue volFieldValue_84 write:
    volIntegrate(cz_solid_84) of U = (-2.22804e-10 -1.97316e-09 3.21829e-10)

surfaceFieldValue massFlowAtFilter_84 write:
    sum(fz_solid_84) of phi = 1.398e-05

volFieldValue volFieldValue_85 write:
    volIntegrate(cz_solid_85) of U = (-3.81566e-10 -1.84334e-09 3.45261e-10)

surfaceFieldValue massFlowAtFilter_85 write:
    sum(fz_solid_85) of phi = -1.68449e-05

volFieldValue volFieldValue_86 write:
    volIntegrate(cz_solid_86) of U = (-5.37744e-10 -1.75579e-09 5.33434e-10)

surfaceFieldValue massFlowAtFilter_86 write:
    sum(fz_solid_86) of phi = -8.08946e-06

volFieldValue volFieldValue_87 write:
    volIntegrate(cz_solid_87) of U = (-5.76799e-10 -1.82539e-09 8.94662e-10)

surfaceFieldValue massFlowAtFilter_87 write:
    sum(fz_solid_87) of phi = -1.05412e-05

volFieldValue volFieldValue_88 write:
    volIntegrate(cz_solid_88) of U = (-4.78975e-10 -2.00683e-09 1.28999e-09)

surfaceFieldValue massFlowAtFilter_88 write:
    sum(fz_solid_88) of phi = -1.5825e-05

volFieldValue volFieldValue_89 write:
    volIntegrate(cz_solid_89) of U = (-1.34225e-10 -2.15849e-09 1.79522e-09)

surfaceFieldValue massFlowAtFilter_89 write:
    sum(fz_solid_89) of phi = -2.06991e-05

volFieldValue volFieldValue_90 write:
    volIntegrate(cz_solid_90) of U = (5.84985e-10 -2.44882e-09 2.33335e-09)

surfaceFieldValue massFlowAtFilter_90 write:
    sum(fz_solid_90) of phi = 2.12358e-05

volFieldValue volFieldValue_91 write:
    volIntegrate(cz_solid_91) of U = (1.49463e-09 -2.8819e-09 2.65922e-09)

surfaceFieldValue massFlowAtFilter_91 write:
    sum(fz_solid_91) of phi = 5.70716e-06

volFieldValue volFieldValue_92 write:
    volIntegrate(cz_solid_92) of U = (3.00536e-09 -3.62258e-09 2.73789e-09)

surfaceFieldValue massFlowAtFilter_92 write:
    sum(fz_solid_92) of phi = 4.8476e-05

volFieldValue volFieldValue_93 write:
    volIntegrate(cz_solid_93) of U = (5.08157e-09 -5.1072e-09 2.55521e-09)

surfaceFieldValue massFlowAtFilter_93 write:
    sum(fz_solid_93) of phi = 6.32847e-05

volFieldValue volFieldValue_94 write:
    volIntegrate(cz_solid_94) of U = (8.42584e-09 -7.27283e-09 2.1372e-09)

surfaceFieldValue massFlowAtFilter_94 write:
    sum(fz_solid_94) of phi = 0.000125462

volFieldValue volFieldValue_95 write:
[...]

surfaceFieldValue massFlowAtFilter_27 write:
    sum(fz_solid_27) of phi = 0.000506624

volFieldValue volFieldValue_28 write:
    volIntegrate(cz_solid_28) of U = (-4.05216e-10 -3.11501e-07 1.93788e-09)

surfaceFieldValue massFlowAtFilter_28 write:
    sum(fz_solid_28) of phi = 5.30291e-06

volFieldValue volFieldValue_29 write:
    volIntegrate(cz_solid_29) of U = (-4.76149e-10 -2.84354e-07 1.64008e-09)

surfaceFieldValue massFlowAtFilter_29 write:
    sum(fz_solid_29) of phi = 5.62218e-05

volFieldValue volFieldValue_30 write:
    volIntegrate(cz_solid_30) of U = (-2.83686e-10 -2.01752e-07 1.66091e-09)

surfaceFieldValue massFlowAtFilter_30 write:
    sum(fz_solid_30) of phi = -5.59602e-06

volFieldValue volFieldValue_31 write:
    volIntegrate(cz_solid_31) of U = (3.38162e-11 -1.24467e-07 1.61643e-09)

surfaceFieldValue massFlowAtFilter_31 write:
    sum(fz_solid_31) of phi = -2.10068e-05

volFieldValue volFieldValue_32 write:
    volIntegrate(cz_solid_32) of U = (4.78704e-10 -7.95091e-08 1.42245e-09)

surfaceFieldValue massFlowAtFilter_32 write:
    sum(fz_solid_32) of phi = -1.47555e-05

volFieldValue volFieldValue_33 write:
    volIntegrate(cz_solid_33) of U = (8.97451e-10 -4.52907e-08 1.04887e-09)

surfaceFieldValue massFlowAtFilter_33 write:
    sum(fz_solid_33) of phi = -5.94361e-06

volFieldValue volFieldValue_34 write:
    volIntegrate(cz_solid_34) of U = (1.07906e-09 -1.35947e-08 5.68318e-10)

surfaceFieldValue massFlowAtFilter_34 write:
    sum(fz_solid_34) of phi = -2.65212e-05

volFieldValue volFieldValue_35 write:
    volIntegrate(cz_solid_35) of U = (9.69206e-10 1.00482e-08 1.12097e-10)

surfaceFieldValue massFlowAtFilter_35 write:
    sum(fz_solid_35) of phi = 1.34815e-05

volFieldValue volFieldValue_36 write:
    volIntegrate(cz_solid_36) of U = (7.39894e-10 2.36012e-08 -1.78844e-10)

surfaceFieldValue massFlowAtFilter_36 write:
    sum(fz_solid_36) of phi = -1.2848e-05

volFieldValue volFieldValue_37 write:
    volIntegrate(cz_solid_37) of U = (5.24088e-10 1.97652e-08 -3.34917e-10)

surfaceFieldValue massFlowAtFilter_37 write:
    sum(fz_solid_37) of phi = 1.93044e-05

volFieldValue volFieldValue_38 write:
    volIntegrate(cz_solid_38) of U = (2.46964e-10 5.52086e-09 -3.13397e-10)

surfaceFieldValue massFlowAtFilter_38 write:
    sum(fz_solid_38) of phi = -6.20645e-05

volFieldValue volFieldValue_39 write:
    volIntegrate(cz_solid_39) of U = (-2.02931e-11 -1.0334e-08 -7.73217e-12)

surfaceFieldValue massFlowAtFilter_39 write:
    sum(fz_solid_39) of phi = -6.44034e-05

volFieldValue volFieldValue_40 write:
    volIntegrate(cz_solid_40) of U = (-2.60592e-10 -1.09134e-08 8.17733e-10)

surfaceFieldValue massFlowAtFilter_40 write:
    sum(fz_solid_40) of phi = -5.15973e-05

volFieldValue volFieldValue_41 write:
    volIntegrate(cz_solid_41) of U = (-4.24097e-10 -3.40216e-08 5.67086e-10)

surfaceFieldValue massFlowAtFilter_41 write:
    sum(fz_solid_41) of phi = 0.00019076

volFieldValue volFieldValue_42 write:
    volIntegrate(cz_solid_42) of U = (-5.09295e-10 -5.75447e-08 1.33872e-09)

surfaceFieldValue massFlowAtFilter_42 write:
    sum(fz_solid_42) of phi = 4.8853e-05

volFieldValue volFieldValue_43 write:
    volIntegrate(cz_solid_43) of U = (-8.92546e-10 -9.76513e-08 2.4648e-09)

surfaceFieldValue massFlowAtFilter_43 write:
    sum(fz_solid_43) of phi = 0.000331249

volFieldValue volFieldValue_44 write:
    volIntegrate(cz_solid_44) of U = (-2.54662e-10 -1.54794e-07 4.65502e-09)

surfaceFieldValue massFlowAtFilter_44 write:
    sum(fz_solid_44) of phi = -0.00019834

volFieldValue volFieldValue_45 write:
    volIntegrate(cz_solid_45) of U = (1.37589e-09 -2.1278e-07 5.02178e-09)

surfaceFieldValue massFlowAtFilter_45 write:
    sum(fz_solid_45) of phi = -0.000256334

volFieldValue volFieldValue_46 write:
    volIntegrate(cz_solid_46) of U = (2.06224e-09 -2.59262e-07 3.98873e-09)

surfaceFieldValue massFlowAtFilter_46 write:
    sum(fz_solid_46) of phi = 0.000497255

volFieldValue volFieldValue_47 write:
    volIntegrate(cz_solid_47) of U = (4.44768e-10 -3.29487e-07 3.50229e-09)

surfaceFieldValue massFlowAtFilter_47 write:
    sum(fz_solid_47) of phi = 0.000674563

volFieldValue volFieldValue_48 write:
    volIntegrate(cz_solid_48) of U = (1.18843e-09 -3.63011e-07 2.81442e-09)

surfaceFieldValue massFlowAtFilter_48 write:
    sum(fz_solid_48) of phi = 1.74935e-05

volFieldValue volFieldValue_49 write:
    volIntegrate(cz_solid_49) of U = (5.48288e-10 -3.38336e-07 1.40836e-09)

surfaceFieldValue massFlowAtFilter_49 write:
    sum(fz_solid_49) of phi = -0.000104581

volFieldValue volFieldValue_50 write:
    volIntegrate(cz_solid_50) of U = (3.41064e-10 -2.37557e-07 3.49179e-10)

surfaceFieldValue massFlowAtFilter_50 write:
    sum(fz_solid_50) of phi = -7.85355e-05

volFieldValue volFieldValue_51 write:
    volIntegrate(cz_solid_51) of U = (4.34362e-10 -1.34718e-07 2.86384e-10)

surfaceFieldValue massFlowAtFilter_51 write:
    sum(fz_solid_51) of phi = -1.43956e-05

volFieldValue volFieldValue_52 write:
    volIntegrate(cz_solid_52) of U = (4.24556e-10 -8.07743e-08 5.61405e-10)

surfaceFieldValue massFlowAtFilter_52 write:
    sum(fz_solid_52) of phi = -5.52935e-05

volFieldValue volFieldValue_53 write:
    volIntegrate(cz_solid_53) of U = (4.99236e-10 -3.08919e-08 5.30311e-10)

surfaceFieldValue massFlowAtFilter_53 write:
    sum(fz_solid_53) of phi = -5.46726e-05

volFieldValue volFieldValue_54 write:
    volIntegrate(cz_solid_54) of U = (4.70705e-10 2.24273e-08 2.88163e-10)

surfaceFieldValue massFlowAtFilter_54 write:
    sum(fz_solid_54) of phi = -3.91689e-05

volFieldValue volFieldValue_55 write:
    volIntegrate(cz_solid_55) of U = (2.69011e-10 6.69526e-08 -1.45807e-11)

surfaceFieldValue massFlowAtFilter_55 write:
    sum(fz_solid_55) of phi = -2.62555e-05

volFieldValue volFieldValue_56 write:
    volIntegrate(cz_solid_56) of U = (3.04666e-11 8.44797e-08 -2.19035e-10)

surfaceFieldValue massFlowAtFilter_56 write:
    sum(fz_solid_56) of phi = -3.4395e-05

volFieldValue volFieldValue_57 write:
    volIntegrate(cz_solid_57) of U = (-1.92197e-10 6.35986e-08 -1.70501e-10)

surfaceFieldValue massFlowAtFilter_57 write:
    sum(fz_solid_57) of phi = -1.7166e-05

volFieldValue volFieldValue_58 write:
    volIntegrate(cz_solid_58) of U = (-4.01493e-10 3.06382e-08 1.36899e-10)

surfaceFieldValue massFlowAtFilter_58 write:
    sum(fz_solid_58) of phi = -0.000121156

volFieldValue volFieldValue_59 write:
    volIntegrate(cz_solid_59) of U = (-3.8262e-10 4.80168e-09 5.85714e-10)

surfaceFieldValue massFlowAtFilter_59 write:
    sum(fz_solid_59) of phi = -4.76725e-06

volFieldValue volFieldValue_60 write:
    volIntegrate(cz_solid_60) of U = (-5.12147e-10 1.53359e-08 9.79114e-10)

surfaceFieldValue massFlowAtFilter_60 write:
    sum(fz_solid_60) of phi = -0.000204706

volFieldValue volFieldValue_61 write:
    volIntegrate(cz_solid_61) of U = (-7.06219e-10 -6.84619e-09 7.68676e-10)

surfaceFieldValue massFlowAtFilter_61 write:
    sum(fz_solid_61) of phi = -5.30869e-06

volFieldValue volFieldValue_62 write:
    volIntegrate(cz_solid_62) of U = (-8.49473e-10 -2.64919e-08 2.03614e-09)

surfaceFieldValue massFlowAtFilter_62 write:
    sum(fz_solid_62) of phi = 4.13857e-05

volFieldValue volFieldValue_63 write:
    volIntegrate(cz_solid_63) of U = (-1.35407e-09 -6.39476e-08 3.64594e-09)

surfaceFieldValue massFlowAtFilter_63 write:
    sum(fz_solid_63) of phi = 0.00022873

volFieldValue volFieldValue_64 write:
    volIntegrate(cz_solid_64) of U = (-3.18555e-10 -1.05305e-07 6.99735e-09)

surfaceFieldValue massFlowAtFilter_64 write:
    sum(fz_solid_64) of phi = -0.000213793

volFieldValue volFieldValue_65 write:
    volIntegrate(cz_solid_65) of U = (2.52072e-09 -1.43516e-07 7.72518e-09)

surfaceFieldValue massFlowAtFilter_65 write:
    sum(fz_solid_65) of phi = -0.000726638

volFieldValue volFieldValue_66 write:
    volIntegrate(cz_solid_66) of U = (4.50367e-09 -1.73746e-07 6.23125e-09)

surfaceFieldValue massFlowAtFilter_66 write:
    sum(fz_solid_66) of phi = 0.000451821

volFieldValue volFieldValue_67 write:
    volIntegrate(cz_solid_67) of U = (2.5037e-09 -2.15038e-07 4.99296e-09)

surfaceFieldValue massFlowAtFilter_67 write:
    sum(fz_solid_67) of phi = 0.000409966

volFieldValue volFieldValue_68 write:
    volIntegrate(cz_solid_68) of U = (4.15459e-09 -2.34729e-07 3.68573e-09)

surfaceFieldValue massFlowAtFilter_68 write:
    sum(fz_solid_68) of phi = -0.000561944

volFieldValue volFieldValue_69 write:
    volIntegrate(cz_solid_69) of U = (2.61522e-09 -2.18361e-07 8.83409e-10)

surfaceFieldValue massFlowAtFilter_69 write:
    sum(fz_solid_69) of phi = -0.000455201

volFieldValue volFieldValue_70 write:
    volIntegrate(cz_solid_70) of U = (1.59335e-09 -1.7908e-07 -6.57714e-10)

surfaceFieldValue massFlowAtFilter_70 write:
    sum(fz_solid_70) of phi = -0.000248033

volFieldValue volFieldValue_71 write:
    volIntegrate(cz_solid_71) of U = (9.30568e-10 -1.42863e-07 -8.80823e-10)

surfaceFieldValue massFlowAtFilter_71 write:
    sum(fz_solid_71) of phi = -6.63927e-06

volFieldValue volFieldValue_72 write:
    volIntegrate(cz_solid_72) of U = (8.82149e-11 -9.21326e-08 -6.65842e-10)

surfaceFieldValue massFlowAtFilter_72 write:
    sum(fz_solid_72) of phi = 5.56931e-05

volFieldValue volFieldValue_73 write:
    volIntegrate(cz_solid_73) of U = (-5.54715e-10 2.94022e-09 -6.8529e-10)

surfaceFieldValue massFlowAtFilter_73 write:
    sum(fz_solid_73) of phi = -6.31682e-05

volFieldValue volFieldValue_74 write:
    volIntegrate(cz_solid_74) of U = (-1.03593e-09 9.03524e-08 -6.03282e-10)

surfaceFieldValue massFlowAtFilter_74 write:
    sum(fz_solid_74) of phi = 0.000164832

volFieldValue volFieldValue_75 write:
    volIntegrate(cz_solid_75) of U = (-1.19077e-09 1.34056e-07 -7.0529e-10)

surfaceFieldValue massFlowAtFilter_75 write:
    sum(fz_solid_75) of phi = 5.90953e-05

volFieldValue volFieldValue_76 write:
    volIntegrate(cz_solid_76) of U = (-9.59966e-10 8.18398e-08 -6.11536e-10)

surfaceFieldValue massFlowAtFilter_76 write:
    sum(fz_solid_76) of phi = -3.06783e-05

volFieldValue volFieldValue_77 write:
    volIntegrate(cz_solid_77) of U = (-7.15508e-10 5.95936e-08 -1.49635e-10)

surfaceFieldValue massFlowAtFilter_77 write:
    sum(fz_solid_77) of phi = -1.09873e-05

volFieldValue volFieldValue_78 write:
    volIntegrate(cz_solid_78) of U = (-7.02837e-10 6.57119e-08 1.8436e-10)

surfaceFieldValue massFlowAtFilter_78 write:
    sum(fz_solid_78) of phi = -0.000186042

volFieldValue volFieldValue_79 write:
    volIntegrate(cz_solid_79) of U = (-7.15658e-10 3.52885e-08 6.65385e-10)

surfaceFieldValue massFlowAtFilter_79 write:
    sum(fz_solid_79) of phi = -3.46125e-05

volFieldValue volFieldValue_80 write:
    volIntegrate(cz_solid_80) of U = (-6.48345e-10 -8.59543e-09 6.1584e-10)

surfaceFieldValue massFlowAtFilter_80 write:
    sum(fz_solid_80) of phi = -9.75629e-05

volFieldValue volFieldValue_81 write:
    volIntegrate(cz_solid_81) of U = (-1.00071e-09 -2.75339e-08 6.14276e-10)

surfaceFieldValue massFlowAtFilter_81 write:
    sum(fz_solid_81) of phi = -7.91406e-05

volFieldValue volFieldValue_82 write:
    volIntegrate(cz_solid_82) of U = (-1.46735e-09 -3.72051e-08 2.19859e-09)

surfaceFieldValue massFlowAtFilter_82 write:
    sum(fz_solid_82) of phi = 8.17174e-05

volFieldValue volFieldValue_83 write:
    volIntegrate(cz_solid_83) of U = (-2.12431e-09 -4.10582e-08 4.26643e-09)

surfaceFieldValue massFlowAtFilter_83 write:
    sum(fz_solid_83) of phi = -4.61818e-05

volFieldValue volFieldValue_84 write:
    volIntegrate(cz_solid_84) of U = (-9.27797e-10 -4.33584e-08 8.71479e-09)

surfaceFieldValue massFlowAtFilter_84 write:
    sum(fz_solid_84) of phi = 0.000389421

volFieldValue volFieldValue_85 write:
    volIntegrate(cz_solid_85) of U = (3.0276e-09 -3.78917e-08 9.82097e-09)

surfaceFieldValue massFlowAtFilter_85 write:
    sum(fz_solid_85) of phi = -0.000960682

volFieldValue volFieldValue_86 write:
    volIntegrate(cz_solid_86) of U = (6.04435e-09 -3.56288e-08 7.89118e-09)

surfaceFieldValue massFlowAtFilter_86 write:
    sum(fz_solid_86) of phi = -0.000200633

volFieldValue volFieldValue_87 write:
    volIntegrate(cz_solid_87) of U = (4.75444e-09 1.50072e-08 6.13133e-09)

surfaceFieldValue massFlowAtFilter_87 write:
    sum(fz_solid_87) of phi = 0.00072733

volFieldValue volFieldValue_88 write:
    volIntegrate(cz_solid_88) of U = (7.98203e-09 1.6086e-08 4.84835e-09)

surfaceFieldValue massFlowAtFilter_88 write:
    sum(fz_solid_88) of phi = -0.00137108

volFieldValue volFieldValue_89 write:
    volIntegrate(cz_solid_89) of U = (6.10551e-09 1.01689e-08 -1.67718e-10)

surfaceFieldValue massFlowAtFilter_89 write:
    sum(fz_solid_89) of phi = -0.000847915

volFieldValue volFieldValue_90 write:
    volIntegrate(cz_solid_90) of U = (2.96198e-09 -1.88811e-08 -2.11075e-09)

surfaceFieldValue massFlowAtFilter_90 write:
    sum(fz_solid_90) of phi = -0.000455223

volFieldValue volFieldValue_91 write:
    volIntegrate(cz_solid_91) of U = (1.5512e-09 -6.96277e-08 -1.24761e-09)

surfaceFieldValue massFlowAtFilter_91 write:
    sum(fz_solid_91) of phi = 0.000162324

volFieldValue volFieldValue_92 write:
    volIntegrate(cz_solid_92) of U = (8.78331e-10 -8.40328e-08 -1.40709e-09)

surfaceFieldValue massFlowAtFilter_92 write:
    sum(fz_solid_92) of phi = 0.000151897

volFieldValue volFieldValue_93 write:
    volIntegrate(cz_solid_93) of U = (-6.29605e-10 -7.0066e-08 -2.34939e-09)

surfaceFieldValue massFlowAtFilter_93 write:
    sum(fz_solid_93) of phi = 4.11739e-05

volFieldValue volFieldValue_94 write:
    volIntegrate(cz_solid_94) of U = (-2.88442e-09 -1.3131e-08 -1.45675e-09)

surfaceFieldValue massFlowAtFilter_94 write:
    sum(fz_solid_94) of phi = 0.000646838

volFieldValue volFieldValue_95 write:
    volIntegrate(cz_solid_95) of U = (-2.11687e-09 3.8158e-08 -1.10189e-09)

surfaceFieldValue massFlowAtFilter_95 write:
    sum(fz_solid_95) of phi = -0.000134106

volFieldValue volFieldValue_96 write:
    volIntegrate(cz_solid_96) of U = (-1.24756e-09 5.56716e-08 -9.30788e-10)

surfaceFieldValue massFlowAtFilter_96 write:
    sum(fz_solid_96) of phi = -1.13896e-05

volFieldValue volFieldValue_97 write:
    volIntegrate(cz_solid_97) of U = (-7.40688e-10 5.95297e-08 -8.49264e-11)

surfaceFieldValue massFlowAtFilter_97 write:
    sum(fz_solid_97) of phi = 0.000244044

volFieldValue volFieldValue_98 write:
    volIntegrate(cz_solid_98) of U = (-6.47973e-10 3.94854e-08 2.13784e-10)

surfaceFieldValue massFlowAtFilter_98 write:
    sum(fz_solid_98) of phi = -0.000222599

volFieldValue volFieldValue_99 write:
    volIntegrate(cz_solid_99) of U = (-6.51975e-10 2.04064e-08 4.39314e-10)

surfaceFieldValue massFlowAtFilter_99 write:
    sum(fz_solid_99) of phi = 0.000250844

Time = 901

DILUPBiCG:  Solving for Ux, Initial residual = 2.79204e-07, Final residual = 2.79204e-07, No Iterations 0
DILUPBiCG:  Solving for Uy, Initial residual = 1.28971e-07, Final residual = 1.28971e-07, No Iterations 0
DILUPBiCG:  Solving for Uz, Initial residual = 1.61314e-07, Final residual = 1.61314e-07, No Iterations 0
DICPCG:  Solving for p, Initial residual = 0.0010033, Final residual = 9.87004e-05, No Iterations 29
DICPCG:  Solving for p, Initial residual = 0.000239111, Final residual = 2.29485e-05, No Iterations 37
DICPCG:  Solving for p, Initial residual = 5.61873e-05, Final residual = 9.90457e-06, No Iterations 60
time step continuity errors : sum local = 8.40541e-05, global = -2.71109e-06, cumulative = 0.00573278
DILUPBiCG:  Solving for epsilon, Initial residual = 0.000654533, Final residual = 5.01771e-06, No Iterations 2
DILUPBiCG:  Solving for k, Initial residual = 0.000899214, Final residual = 4.65812e-07, No Iterations 3
ExecutionTime = 2068.77 s  ClockTime = 2140 s

Time = 902

DILUPBiCG:  Solving for Ux, Initial residual = 2.79483e-07, Final residual = 2.79483e-07, No Iterations 0
DILUPBiCG:  Solving for Uy, Initial residual = 1.29023e-07, Final residual = 1.29023e-07, No Iterations 0
DILUPBiCG:  Solving for Uz, Initial residual = 1.61477e-07, Final residual = 1.61477e-07, No Iterations 0
DICPCG:  Solving for p, Initial residual = 0.00100427, Final residual = 9.88072e-05, No Iterations 29
DICPCG:  Solving for p, Initial residual = 0.000238876, Final residual = 2.28911e-05, No Iterations 37
DICPCG:  Solving for p, Initial residual = 5.61317e-05, Final residual = 9.81839e-06, No Iterations 59
time step continuity errors : sum local = 8.33727e-05, global = -2.29636e-06, cumulative = 0.00573049
DILUPBiCG:  Solving for epsilon, Initial residual = 0.000655049, Final residual = 5.03833e-06, No Iterations 2
DILUPBiCG:  Solving for k, Initial residual = 0.000900513, Final residual = 4.66648e-07, No Iterations 3
ExecutionTime = 2070.89 s  ClockTime = 2142 s

Time = 903

DILUPBiCG:  Solving for Ux, Initial residual = 2.79765e-07, Final residual = 2.79765e-07, No Iterations 0
DILUPBiCG:  Solving for Uy, Initial residual = 1.29075e-07, Final residual = 1.29075e-07, No Iterations 0
DILUPBiCG:  Solving for Uz, Initial residual = 1.61653e-07, Final residual = 1.61653e-07, No Iterations 0
DICPCG:  Solving for p, Initial residual = 0.001002, Final residual = 9.90387e-05, No Iterations 29
DICPCG:  Solving for p, Initial residual = 0.000239241, Final residual = 2.27487e-05, No Iterations 37
DICPCG:  Solving for p, Initial residual = 5.60792e-05, Final residual = 9.78584e-06, No Iterations 56
time step continuity errors : sum local = 8.31498e-05, global = -2.30391e-06, cumulative = 0.00572818
DILUPBiCG:  Solving for epsilon, Initial residual = 0.00065556, Final residual = 5.06514e-06, No Iterations 2
DILUPBiCG:  Solving for k, Initial residual = 0.000901804, Final residual = 4.67723e-07, No Iterations 3
ExecutionTime = 2072.97 s  ClockTime = 2144 s

Time = 904

DILUPBiCG:  Solving for Ux, Initial residual = 2.80042e-07, Final residual = 2.80042e-07, No Iterations 0
DILUPBiCG:  Solving for Uy, Initial residual = 1.29128e-07, Final residual = 1.29128e-07, No Iterations 0
DILUPBiCG:  Solving for Uz, Initial residual = 1.61835e-07, Final residual = 1.61835e-07, No Iterations 0
DICPCG:  Solving for p, Initial residual = 0.001001, Final residual = 9.91273e-05, No Iterations 29
DICPCG:  Solving for p, Initial residual = 0.000239392, Final residual = 2.25374e-05, No Iterations 37
DICPCG:  Solving for p, Initial residual = 5.59277e-05, Final residual = 9.80263e-06, No Iterations 55
time step continuity errors : sum local = 8.33442e-05, global = -2.92039e-06, cumulative = 0.00572526
DILUPBiCG:  Solving for epsilon, Initial residual = 0.000656103, Final residual = 5.05895e-06, No Iterations 2
bounding epsilon, min: -0.000833208 max: 11630.6 average: 38.8298
DILUPBiCG:  Solving for k, Initial residual = 0.000903093, Final residual = 4.68858e-07, No Iterations 3
ExecutionTime = 2075.06 s  ClockTime = 2146 s

Time = 905

DILUPBiCG:  Solving for Ux, Initial residual = 2.80308e-07, Final residual = 2.80308e-07, No Iterations 0
DILUPBiCG:  Solving for Uy, Initial residual = 1.29178e-07, Final residual = 1.29178e-07, No Iterations 0
DILUPBiCG:  Solving for Uz, Initial residual = 1.62021e-07, Final residual = 1.62021e-07, No Iterations 0
DICPCG:  Solving for p, Initial residual = 0.000999595, Final residual = 9.56458e-05, No Iterations 30
DICPCG:  Solving for p, Initial residual = 0.000235858, Final residual = 2.35398e-05, No Iterations 37
DICPCG:  Solving for p, Initial residual = 5.63148e-05, Final residual = 9.91164e-06, No Iterations 52
time step continuity errors : sum local = 8.43216e-05, global = -4.01041e-06, cumulative = 0.00572125
DILUPBiCG:  Solving for epsilon, Initial residual = 0.000656647, Final residual = 5.08907e-06, No Iterations 2
bounding epsilon, min: -0.000707595 max: 11630.6 average: 38.8191
DILUPBiCG:  Solving for k, Initial residual = 0.000904373, Final residual = 4.70258e-07, No Iterations 3
ExecutionTime = 2077.14 s  ClockTime = 2148 s


SIMPLE solution converged in 905 iterations

End

Finalising parallel run
