/*---------------------------------------------------------------------------*\
  =========                 |
  \\      /  F ield         | OpenFOAM: The Open Source CFD Toolbox
   \\    /   O peration     | Website:  https://openfoam.org
    \\  /    A nd           | Version:  6
     \\/     M anipulation  |
\*---------------------------------------------------------------------------*/
Build  : 6
Exec   : bouSimpleFoam -parallel
Date   : Aug 07 2020
Time   : 17:22:01
Host   : "emps-ugcs1"
PID    : 29454
I/O    : uncollated
Case   : /home/links/jjw230/upload/Case8
nProcs : 4
Slaves : 
3
(
"emps-ugcs1.29455"
"emps-ugcs1.29456"
"emps-ugcs1.29457"
)

Pstream initialized with:
    floatTransfer      : 0
    nProcsSimpleSum    : 0
    commsType          : nonBlocking
    polling iterations : 0
sigFpe : Enabling floating point exception trapping (FOAM_SIGFPE).
fileModificationChecking : Monitoring run-time modified files using timeStampMaster (fileModificationSkew 10)
allowSystemOperations : Allowing user-supplied system call operations

// * * * * * * * * * * * * * * * * * * * * * * * * * * * * * * * * * * * * * //
Create time

Create mesh for time = 0


SIMPLE: Convergence criteria found
        p: tolerance 0.001
        U: tolerance 0.001
        "(k|epsilon)": tolerance 0.001
        theta: tolerance 0.001

Reading field p

Reading field U

Reading field theta

Reading/calculating face flux field phi

Selecting incompressible transport model Newtonian
Selecting turbulence model type RAS
Selecting RAS turbulence model RNGkEpsilon
RAS
{
    RASModel        RNGkEpsilon;
    turbulence      on;
    printCoeffs     on;
    Cmu             0.0845;
    C1              1.42;
    C2              1.68;
    C3              0;
    sigmak          0.71942;
    sigmaEps        0.71942;
    eta0            4.38;
    beta            0.012;
}

No MRF models present

Creating finite volume options from "system/fvOptions"

Selecting finite volume options model type explicitPorositySource
    Source: source0
    - selecting cells using cellZone cz_solid_0
    - selected 2112 cell(s) with volume 0.00214254
Porosity region source0:
    selecting model: DarcyForchheimer
    creating porous zone: cz_solid_0
Selecting finite volume options model type explicitPorositySource
    Source: source1
    - selecting cells using cellZone cz_solid_1
    - selected 2072 cell(s) with volume 0.00214122
Porosity region source1:
    selecting model: DarcyForchheimer
    creating porous zone: cz_solid_1
Selecting finite volume options model type explicitPorositySource
    Source: source2
    - selecting cells using cellZone cz_solid_2
    - selected 1996 cell(s) with volume 0.00214307
Porosity region source2:
    selecting model: DarcyForchheimer
    creating porous zone: cz_solid_2
Selecting finite volume options model type explicitPorositySource
    Source: source3
    - selecting cells using cellZone cz_solid_3
    - selected 1982 cell(s) with volume 0.0021436
Porosity region source3:
    selecting model: DarcyForchheimer
    creating porous zone: cz_solid_3
Selecting finite volume options model type explicitPorositySource
    Source: source4
    - selecting cells using cellZone cz_solid_4
    - selected 1729 cell(s) with volume 0.00214274
Porosity region source4:
    selecting model: DarcyForchheimer
    creating porous zone: cz_solid_4
Selecting finite volume options model type explicitPorositySource
    Source: source5
    - selecting cells using cellZone cz_solid_5
    - selected 1707 cell(s) with volume 0.00214086
Porosity region source5:
    selecting model: DarcyForchheimer
    creating porous zone: cz_solid_5
Selecting finite volume options model type explicitPorositySource
    Source: source6
    - selecting cells using cellZone cz_solid_6
    - selected 1855 cell(s) with volume 0.00214279
Porosity region source6:
    selecting model: DarcyForchheimer
    creating porous zone: cz_solid_6
Selecting finite volume options model type explicitPorositySource
    Source: source7
    - selecting cells using cellZone cz_solid_7
    - selected 1900 cell(s) with volume 0.00214222
Porosity region source7:
    selecting model: DarcyForchheimer
    creating porous zone: cz_solid_7
Selecting finite volume options model type explicitPorositySource
    Source: source8
    - selecting cells using cellZone cz_solid_8
    - selected 1915 cell(s) with volume 0.00214223
Porosity region source8:
    selecting model: DarcyForchheimer
    creating porous zone: cz_solid_8
Selecting finite volume options model type explicitPorositySource
    Source: source9
    - selecting cells using cellZone cz_solid_9
    - selected 2058 cell(s) with volume 0.00214328
Porosity region source9:
    selecting model: DarcyForchheimer
    creating porous zone: cz_solid_9
Selecting finite volume options model type explicitPorositySource
    Source: source10
    - selecting cells using cellZone cz_solid_10
    - selected 1958 cell(s) with volume 0.00214429
Porosity region source10:
    selecting model: DarcyForchheimer
    creating porous zone: cz_solid_10
Selecting finite volume options model type explicitPorositySource
    Source: source11
    - selecting cells using cellZone cz_solid_11
    - selected 2094 cell(s) with volume 0.00214472
Porosity region source11:
    selecting model: DarcyForchheimer
    creating porous zone: cz_solid_11
Selecting finite volume options model type explicitPorositySource
    Source: source12
    - selecting cells using cellZone cz_solid_12
    - selected 2046 cell(s) with volume 0.00214203
Porosity region source12:
    selecting model: DarcyForchheimer
    creating porous zone: cz_solid_12
Selecting finite volume options model type explicitPorositySource
    Source: source13
    - selecting cells using cellZone cz_solid_13
    - selected 1942 cell(s) with volume 0.00214274
Porosity region source13:
    selecting model: DarcyForchheimer
    creating porous zone: cz_solid_13
Selecting finite volume options model type explicitPorositySource
    Source: source14
    - selecting cells using cellZone cz_solid_14
    - selected 1812 cell(s) with volume 0.00215019
Porosity region source14:
    selecting model: DarcyForchheimer
    creating porous zone: cz_solid_14
Selecting finite volume options model type explicitPorositySource
    Source: source15
    - selecting cells using cellZone cz_solid_15
    - selected 2209 cell(s) with volume 0.00214557
Porosity region source15:
    selecting model: DarcyForchheimer
    creating porous zone: cz_solid_15
Selecting finite volume options model type explicitPorositySource
    Source: source16
    - selecting cells using cellZone cz_solid_16
    - selected 1960 cell(s) with volume 0.00214337
Porosity region source16:
    selecting model: DarcyForchheimer
    creating porous zone: cz_solid_16
Selecting finite volume options model type explicitPorositySource
    Source: source17
    - selecting cells using cellZone cz_solid_17
    - selected 1971 cell(s) with volume 0.00214234
Porosity region source17:
    selecting model: DarcyForchheimer
    creating porous zone: cz_solid_17
Selecting finite volume options model type explicitPorositySource
    Source: source18
    - selecting cells using cellZone cz_solid_18
    - selected 1944 cell(s) with volume 0.0021446
Porosity region source18:
    selecting model: DarcyForchheimer
    creating porous zone: cz_solid_18
Selecting finite volume options model type explicitPorositySource
    Source: source19
    - selecting cells using cellZone cz_solid_19
    - selected 1880 cell(s) with volume 0.00213884
Porosity region source19:
    selecting model: DarcyForchheimer
    creating porous zone: cz_solid_19
Selecting finite volume options model type explicitPorositySource
    Source: source20
    - selecting cells using cellZone cz_solid_20
    - selected 2272 cell(s) with volume 0.00214327
Porosity region source20:
    selecting model: DarcyForchheimer
    creating porous zone: cz_solid_20
Selecting finite volume options model type explicitPorositySource
    Source: source21
    - selecting cells using cellZone cz_solid_21
    - selected 2192 cell(s) with volume 0.00214141
Porosity region source21:
    selecting model: DarcyForchheimer
    creating porous zone: cz_solid_21
Selecting finite volume options model type explicitPorositySource
    Source: source22
    - selecting cells using cellZone cz_solid_22
    - selected 2073 cell(s) with volume 0.00214229
Porosity region source22:
    selecting model: DarcyForchheimer
    creating porous zone: cz_solid_22
Selecting finite volume options model type explicitPorositySource
    Source: source23
    - selecting cells using cellZone cz_solid_23
    - selected 2080 cell(s) with volume 0.00214262
Porosity region source23:
    selecting model: DarcyForchheimer
    creating porous zone: cz_solid_23
Selecting finite volume options model type explicitPorositySource
    Source: source24
    - selecting cells using cellZone cz_solid_24
    - selected 1818 cell(s) with volume 0.00214314
Porosity region source24:
    selecting model: DarcyForchheimer
    creating porous zone: cz_solid_24
Selecting finite volume options model type explicitPorositySource
    Source: source25
    - selecting cells using cellZone cz_solid_25
    - selected 1850 cell(s) with volume 0.00214107
Porosity region source25:
    selecting model: DarcyForchheimer
    creating porous zone: cz_solid_25
Selecting finite volume options model type explicitPorositySource
    Source: source26
    - selecting cells using cellZone cz_solid_26
    - selected 1946 cell(s) with volume 0.00214287
Porosity region source26:
    selecting model: DarcyForchheimer
    creating porous zone: cz_solid_26
Selecting finite volume options model type explicitPorositySource
    Source: source27
    - selecting cells using cellZone cz_solid_27
    - selected 2010 cell(s) with volume 0.00214236
Porosity region source27:
    selecting model: DarcyForchheimer
    creating porous zone: cz_solid_27
Selecting finite volume options model type explicitPorositySource
    Source: source28
    - selecting cells using cellZone cz_solid_28
    - selected 2004 cell(s) with volume 0.00214192
Porosity region source28:
    selecting model: DarcyForchheimer
    creating porous zone: cz_solid_28
Selecting finite volume options model type explicitPorositySource
    Source: source29
    - selecting cells using cellZone cz_solid_29
    - selected 2152 cell(s) with volume 0.00214346
Porosity region source29:
    selecting model: DarcyForchheimer
    creating porous zone: cz_solid_29
Selecting finite volume options model type explicitPorositySource
    Source: source30
    - selecting cells using cellZone cz_solid_30
    - selected 2056 cell(s) with volume 0.00214355
Porosity region source30:
    selecting model: DarcyForchheimer
    creating porous zone: cz_solid_30
Selecting finite volume options model type explicitPorositySource
    Source: source31
    - selecting cells using cellZone cz_solid_31
    - selected 2192 cell(s) with volume 0.00214404
Porosity region source31:
    selecting model: DarcyForchheimer
    creating porous zone: cz_solid_31
Selecting finite volume options model type explicitPorositySource
    Source: source32
    - selecting cells using cellZone cz_solid_32
    - selected 2144 cell(s) with volume 0.00214297
Porosity region source32:
    selecting model: DarcyForchheimer
    creating porous zone: cz_solid_32
Selecting finite volume options model type explicitPorositySource
    Source: source33
    - selecting cells using cellZone cz_solid_33
    - selected 2080 cell(s) with volume 0.00214302
Porosity region source33:
    selecting model: DarcyForchheimer
    creating porous zone: cz_solid_33
Selecting finite volume options model type explicitPorositySource
    Source: source34
    - selecting cells using cellZone cz_solid_34
    - selected 1826 cell(s) with volume 0.00214384
Porosity region source34:
    selecting model: DarcyForchheimer
    creating porous zone: cz_solid_34
Selecting finite volume options model type explicitPorositySource
    Source: source35
    - selecting cells using cellZone cz_solid_35
    - selected 2304 cell(s) with volume 0.00214512
Porosity region source35:
    selecting model: DarcyForchheimer
    creating porous zone: cz_solid_35
Selecting finite volume options model type explicitPorositySource
    Source: source36
    - selecting cells using cellZone cz_solid_36
    - selected 2080 cell(s) with volume 0.00214359
Porosity region source36:
    selecting model: DarcyForchheimer
    creating porous zone: cz_solid_36
Selecting finite volume options model type explicitPorositySource
    Source: source37
    - selecting cells using cellZone cz_solid_37
    - selected 2066 cell(s) with volume 0.00214186
Porosity region source37:
    selecting model: DarcyForchheimer
    creating porous zone: cz_solid_37
Selecting finite volume options model type explicitPorositySource
    Source: source38
    - selecting cells using cellZone cz_solid_38
    - selected 2044 cell(s) with volume 0.00214343
Porosity region source38:
    selecting model: DarcyForchheimer
    creating porous zone: cz_solid_38
Selecting finite volume options model type explicitPorositySource
    Source: source39
    - selecting cells using cellZone cz_solid_39
    - selected 2108 cell(s) with volume 0.00214107
Porosity region source39:
    selecting model: DarcyForchheimer
    creating porous zone: cz_solid_39
Selecting finite volume options model type explicitPorositySource
    Source: source40
    - selecting cells using cellZone cz_solid_40
    - selected 2112 cell(s) with volume 0.00214265
Porosity region source40:
    selecting model: DarcyForchheimer
    creating porous zone: cz_solid_40
Selecting finite volume options model type explicitPorositySource
    Source: source41
    - selecting cells using cellZone cz_solid_41
    - selected 2072 cell(s) with volume 0.00214137
Porosity region source41:
    selecting model: DarcyForchheimer
    creating porous zone: cz_solid_41
Selecting finite volume options model type explicitPorositySource
    Source: source42
    - selecting cells using cellZone cz_solid_42
    - selected 1988 cell(s) with volume 0.00214195
Porosity region source42:
    selecting model: DarcyForchheimer
    creating porous zone: cz_solid_42
Selecting finite volume options model type explicitPorositySource
    Source: source43
    - selecting cells using cellZone cz_solid_43
    - selected 1988 cell(s) with volume 0.00214249
Porosity region source43:
    selecting model: DarcyForchheimer
    creating porous zone: cz_solid_43
Selecting finite volume options model type explicitPorositySource
    Source: source44
    - selecting cells using cellZone cz_solid_44
    - selected 1729 cell(s) with volume 0.00214284
Porosity region source44:
    selecting model: DarcyForchheimer
    creating porous zone: cz_solid_44
Selecting finite volume options model type explicitPorositySource
    Source: source45
    - selecting cells using cellZone cz_solid_45
    - selected 1707 cell(s) with volume 0.00214086
Porosity region source45:
    selecting model: DarcyForchheimer
    creating porous zone: cz_solid_45
Selecting finite volume options model type explicitPorositySource
    Source: source46
    - selecting cells using cellZone cz_solid_46
    - selected 1855 cell(s) with volume 0.00214272
Porosity region source46:
    selecting model: DarcyForchheimer
    creating porous zone: cz_solid_46
Selecting finite volume options model type explicitPorositySource
    Source: source47
    - selecting cells using cellZone cz_solid_47
    - selected 1900 cell(s) with volume 0.00214206
Porosity region source47:
    selecting model: DarcyForchheimer
    creating porous zone: cz_solid_47
Selecting finite volume options model type explicitPorositySource
    Source: source48
    - selecting cells using cellZone cz_solid_48
    - selected 1903 cell(s) with volume 0.00214181
Porosity region source48:
    selecting model: DarcyForchheimer
    creating porous zone: cz_solid_48
Selecting finite volume options model type explicitPorositySource
    Source: source49
    - selecting cells using cellZone cz_solid_49
    - selected 2058 cell(s) with volume 0.00214323
Porosity region source49:
    selecting model: DarcyForchheimer
    creating porous zone: cz_solid_49
Selecting finite volume options model type explicitPorositySource
    Source: source50
    - selecting cells using cellZone cz_solid_50
    - selected 1976 cell(s) with volume 0.00214338
Porosity region source50:
    selecting model: DarcyForchheimer
    creating porous zone: cz_solid_50
Selecting finite volume options model type explicitPorositySource
    Source: source51
    - selecting cells using cellZone cz_solid_51
    - selected 2100 cell(s) with volume 0.00214402
Porosity region source51:
    selecting model: DarcyForchheimer
    creating porous zone: cz_solid_51
Selecting finite volume options model type explicitPorositySource
    Source: source52
    - selecting cells using cellZone cz_solid_52
    - selected 2046 cell(s) with volume 0.00214264
Porosity region source52:
    selecting model: DarcyForchheimer
    creating porous zone: cz_solid_52
Selecting finite volume options model type explicitPorositySource
    Source: source53
    - selecting cells using cellZone cz_solid_53
    - selected 1942 cell(s) with volume 0.00214288
Porosity region source53:
    selecting model: DarcyForchheimer
    creating porous zone: cz_solid_53
Selecting finite volume options model type explicitPorositySource
    Source: source54
    - selecting cells using cellZone cz_solid_54
    - selected 1762 cell(s) with volume 0.00215247
Porosity region source54:
    selecting model: DarcyForchheimer
    creating porous zone: cz_solid_54
Selecting finite volume options model type explicitPorositySource
    Source: source55
    - selecting cells using cellZone cz_solid_55
    - selected 2212 cell(s) with volume 0.00214507
Porosity region source55:
    selecting model: DarcyForchheimer
    creating porous zone: cz_solid_55
Selecting finite volume options model type explicitPorositySource
    Source: source56
    - selecting cells using cellZone cz_solid_56
    - selected 1960 cell(s) with volume 0.00214361
Porosity region source56:
    selecting model: DarcyForchheimer
    creating porous zone: cz_solid_56
Selecting finite volume options model type explicitPorositySource
    Source: source57
    - selecting cells using cellZone cz_solid_57
    - selected 1974 cell(s) with volume 0.00214177
Porosity region source57:
    selecting model: DarcyForchheimer
    creating porous zone: cz_solid_57
Selecting finite volume options model type explicitPorositySource
    Source: source58
    - selecting cells using cellZone cz_solid_58
    - selected 1953 cell(s) with volume 0.00214309
Porosity region source58:
    selecting model: DarcyForchheimer
    creating porous zone: cz_solid_58
Selecting finite volume options model type explicitPorositySource
    Source: source59
    - selecting cells using cellZone cz_solid_59
    - selected 1880 cell(s) with volume 0.00213912
Porosity region source59:
    selecting model: DarcyForchheimer
    creating porous zone: cz_solid_59
Selecting finite volume options model type explicitPorositySource
    Source: source60
    - selecting cells using cellZone cz_solid_60
    - selected 2184 cell(s) with volume 0.00214267
Porosity region source60:
    selecting model: DarcyForchheimer
    creating porous zone: cz_solid_60
Selecting finite volume options model type explicitPorositySource
    Source: source61
    - selecting cells using cellZone cz_solid_61
    - selected 2093 cell(s) with volume 0.00214143
Porosity region source61:
    selecting model: DarcyForchheimer
    creating porous zone: cz_solid_61
Selecting finite volume options model type explicitPorositySource
    Source: source62
    - selecting cells using cellZone cz_solid_62
    - selected 1981 cell(s) with volume 0.00214199
Porosity region source62:
    selecting model: DarcyForchheimer
    creating porous zone: cz_solid_62
Selecting finite volume options model type explicitPorositySource
    Source: source63
    - selecting cells using cellZone cz_solid_63
    - selected 1988 cell(s) with volume 0.00214261
Porosity region source63:
    selecting model: DarcyForchheimer
    creating porous zone: cz_solid_63
Selecting finite volume options model type explicitPorositySource
    Source: source64
    - selecting cells using cellZone cz_solid_64
    - selected 1736 cell(s) with volume 0.00214267
Porosity region source64:
    selecting model: DarcyForchheimer
    creating porous zone: cz_solid_64
Selecting finite volume options model type explicitPorositySource
    Source: source65
    - selecting cells using cellZone cz_solid_65
    - selected 1757 cell(s) with volume 0.00214086
Porosity region source65:
    selecting model: DarcyForchheimer
    creating porous zone: cz_solid_65
Selecting finite volume options model type explicitPorositySource
    Source: source66
    - selecting cells using cellZone cz_solid_66
    - selected 1869 cell(s) with volume 0.00214282
Porosity region source66:
    selecting model: DarcyForchheimer
    creating porous zone: cz_solid_66
Selecting finite volume options model type explicitPorositySource
    Source: source67
    - selecting cells using cellZone cz_solid_67
    - selected 1925 cell(s) with volume 0.00214226
Porosity region source67:
    selecting model: DarcyForchheimer
    creating porous zone: cz_solid_67
Selecting finite volume options model type explicitPorositySource
    Source: source68
    - selecting cells using cellZone cz_solid_68
    - selected 1897 cell(s) with volume 0.00214151
Porosity region source68:
    selecting model: DarcyForchheimer
    creating porous zone: cz_solid_68
Selecting finite volume options model type explicitPorositySource
    Source: source69
    - selecting cells using cellZone cz_solid_69
    - selected 2065 cell(s) with volume 0.0021432
Porosity region source69:
    selecting model: DarcyForchheimer
    creating porous zone: cz_solid_69
Selecting finite volume options model type explicitPorositySource
    Source: source70
    - selecting cells using cellZone cz_solid_70
    - selected 1971 cell(s) with volume 0.00214323
Porosity region source70:
    selecting model: DarcyForchheimer
    creating porous zone: cz_solid_70
Selecting finite volume options model type explicitPorositySource
    Source: source71
    - selecting cells using cellZone cz_solid_71
    - selected 2100 cell(s) with volume 0.00214378
Porosity region source71:
    selecting model: DarcyForchheimer
    creating porous zone: cz_solid_71
Selecting finite volume options model type explicitPorositySource
    Source: source72
    - selecting cells using cellZone cz_solid_72
    - selected 2045 cell(s) with volume 0.00214226
Porosity region source72:
    selecting model: DarcyForchheimer
    creating porous zone: cz_solid_72
Selecting finite volume options model type explicitPorositySource
    Source: source73
    - selecting cells using cellZone cz_solid_73
    - selected 1988 cell(s) with volume 0.0021429
Porosity region source73:
    selecting model: DarcyForchheimer
    creating porous zone: cz_solid_73
Selecting finite volume options model type explicitPorositySource
    Source: source74
    - selecting cells using cellZone cz_solid_74
    - selected 1769 cell(s) with volume 0.00214476
Porosity region source74:
    selecting model: DarcyForchheimer
    creating porous zone: cz_solid_74
Selecting finite volume options model type explicitPorositySource
    Source: source75
    - selecting cells using cellZone cz_solid_75
    - selected 2212 cell(s) with volume 0.00214495
Porosity region source75:
    selecting model: DarcyForchheimer
    creating porous zone: cz_solid_75
Selecting finite volume options model type explicitPorositySource
    Source: source76
    - selecting cells using cellZone cz_solid_76
    - selected 1988 cell(s) with volume 0.00214349
Porosity region source76:
    selecting model: DarcyForchheimer
    creating porous zone: cz_solid_76
Selecting finite volume options model type explicitPorositySource
    Source: source77
    - selecting cells using cellZone cz_solid_77
    - selected 1977 cell(s) with volume 0.00214164
Porosity region source77:
    selecting model: DarcyForchheimer
    creating porous zone: cz_solid_77
Selecting finite volume options model type explicitPorositySource
    Source: source78
    - selecting cells using cellZone cz_solid_78
    - selected 1953 cell(s) with volume 0.00214294
Porosity region source78:
    selecting model: DarcyForchheimer
    creating porous zone: cz_solid_78
Selecting finite volume options model type explicitPorositySource
    Source: source79
    - selecting cells using cellZone cz_solid_79
    - selected 2016 cell(s) with volume 0.00214057
Porosity region source79:
    selecting model: DarcyForchheimer
    creating porous zone: cz_solid_79
Selecting finite volume options model type explicitPorositySource
    Source: source80
    - selecting cells using cellZone cz_solid_80
    - selected 2218 cell(s) with volume 0.00214263
Porosity region source80:
    selecting model: DarcyForchheimer
    creating porous zone: cz_solid_80
Selecting finite volume options model type explicitPorositySource
    Source: source81
    - selecting cells using cellZone cz_solid_81
    - selected 2116 cell(s) with volume 0.0021411
Porosity region source81:
    selecting model: DarcyForchheimer
    creating porous zone: cz_solid_81
Selecting finite volume options model type explicitPorositySource
    Source: source82
    - selecting cells using cellZone cz_solid_82
    - selected 2001 cell(s) with volume 0.00214168
Porosity region source82:
    selecting model: DarcyForchheimer
    creating porous zone: cz_solid_82
Selecting finite volume options model type explicitPorositySource
    Source: source83
    - selecting cells using cellZone cz_solid_83
    - selected 2018 cell(s) with volume 0.00214222
Porosity region source83:
    selecting model: DarcyForchheimer
    creating porous zone: cz_solid_83
Selecting finite volume options model type explicitPorositySource
    Source: source84
    - selecting cells using cellZone cz_solid_84
    - selected 1757 cell(s) with volume 0.00214265
Porosity region source84:
    selecting model: DarcyForchheimer
    creating porous zone: cz_solid_84
Selecting finite volume options model type explicitPorositySource
    Source: source85
    - selecting cells using cellZone cz_solid_85
    - selected 1787 cell(s) with volume 0.00214066
Porosity region source85:
    selecting model: DarcyForchheimer
    creating porous zone: cz_solid_85
Selecting finite volume options model type explicitPorositySource
    Source: source86
    - selecting cells using cellZone cz_solid_86
    - selected 1888 cell(s) with volume 0.00214245
Porosity region source86:
    selecting model: DarcyForchheimer
    creating porous zone: cz_solid_86
Selecting finite volume options model type explicitPorositySource
    Source: source87
    - selecting cells using cellZone cz_solid_87
    - selected 1958 cell(s) with volume 0.00214228
Porosity region source87:
    selecting model: DarcyForchheimer
    creating porous zone: cz_solid_87
Selecting finite volume options model type explicitPorositySource
    Source: source88
    - selecting cells using cellZone cz_solid_88
    - selected 1907 cell(s) with volume 0.00214195
Porosity region source88:
    selecting model: DarcyForchheimer
    creating porous zone: cz_solid_88
Selecting finite volume options model type explicitPorositySource
    Source: source89
    - selecting cells using cellZone cz_solid_89
    - selected 2095 cell(s) with volume 0.00214305
Porosity region source89:
    selecting model: DarcyForchheimer
    creating porous zone: cz_solid_89
Selecting finite volume options model type explicitPorositySource
    Source: source90
    - selecting cells using cellZone cz_solid_90
    - selected 1980 cell(s) with volume 0.00214319
Porosity region source90:
    selecting model: DarcyForchheimer
    creating porous zone: cz_solid_90
Selecting finite volume options model type explicitPorositySource
    Source: source91
    - selecting cells using cellZone cz_solid_91
    - selected 2123 cell(s) with volume 0.00214382
Porosity region source91:
    selecting model: DarcyForchheimer
    creating porous zone: cz_solid_91
Selecting finite volume options model type explicitPorositySource
    Source: source92
    - selecting cells using cellZone cz_solid_92
    - selected 2080 cell(s) with volume 0.00214246
Porosity region source92:
    selecting model: DarcyForchheimer
    creating porous zone: cz_solid_92
Selecting finite volume options model type explicitPorositySource
    Source: source93
    - selecting cells using cellZone cz_solid_93
    - selected 2011 cell(s) with volume 0.00214313
Porosity region source93:
    selecting model: DarcyForchheimer
    creating porous zone: cz_solid_93
Selecting finite volume options model type explicitPorositySource
    Source: source94
    - selecting cells using cellZone cz_solid_94
    - selected 1813 cell(s) with volume 0.00214379
Porosity region source94:
    selecting model: DarcyForchheimer
    creating porous zone: cz_solid_94
Selecting finite volume options model type explicitPorositySource
    Source: source95
    - selecting cells using cellZone cz_solid_95
    - selected 2228 cell(s) with volume 0.00214501
Porosity region source95:
    selecting model: DarcyForchheimer
    creating porous zone: cz_solid_95
Selecting finite volume options model type explicitPorositySource
    Source: source96
    - selecting cells using cellZone cz_solid_96
    - selected 2025 cell(s) with volume 0.00214324
Porosity region source96:
    selecting model: DarcyForchheimer
    creating porous zone: cz_solid_96
Selecting finite volume options model type explicitPorositySource
    Source: source97
    - selecting cells using cellZone cz_solid_97
    - selected 1982 cell(s) with volume 0.00214146
Porosity region source97:
    selecting model: DarcyForchheimer
    creating porous zone: cz_solid_97
Selecting finite volume options model type explicitPorositySource
    Source: source98
    - selecting cells using cellZone cz_solid_98
    - selected 1983 cell(s) with volume 0.00214286
Porosity region source98:
    selecting model: DarcyForchheimer
    creating porous zone: cz_solid_98
Selecting finite volume options model type explicitPorositySource
    Source: source99
    - selecting cells using cellZone cz_solid_99
    - selected 2029 cell(s) with volume 0.00214061
Porosity region source99:
    selecting model: DarcyForchheimer
    creating porous zone: cz_solid_99

Starting time loop

forces porousforces:
--> FOAM Warning : 
    From function Foam::labelHashSet Foam::polyBoundaryMesh::patchSet(const Foam::UList<Foam::wordRe>&, bool, bool) const
    in file meshes/polyMesh/polyBoundaryMesh/polyBoundaryMesh.C at line 798
    Cannot find any patch or group names matching solid_to_fluid
    Including porosity effects


surfaceFieldValue massFlowAtFilter_0:
    total faces  = 1642
    total area   = 0.101691




surfaceFieldValue massFlowAtFilter_1:
    total faces  = 1724
    total area   = 0.101637




surfaceFieldValue massFlowAtFilter_2:
    total faces  = 1618
    total area   = 0.101686




surfaceFieldValue massFlowAtFilter_3:
    total faces  = 1682
    total area   = 0.101649




surfaceFieldValue massFlowAtFilter_4:
    total faces  = 1618
    total area   = 0.10171




surfaceFieldValue massFlowAtFilter_5:
    total faces  = 1572
    total area   = 0.10168




surfaceFieldValue massFlowAtFilter_6:
    total faces  = 1632
    total area   = 0.101715




surfaceFieldValue massFlowAtFilter_7:
    total faces  = 1606
    total area   = 0.101626




surfaceFieldValue massFlowAtFilter_8:
    total faces  = 1636
    total area   = 0.101661




surfaceFieldValue massFlowAtFilter_9:
    total faces  = 1692
    total area   = 0.101655




surfaceFieldValue massFlowAtFilter_10:
    total faces  = 1662
    total area   = 0.101619




surfaceFieldValue massFlowAtFilter_11:
    total faces  = 1730
    total area   = 0.101632




surfaceFieldValue massFlowAtFilter_12:
    total faces  = 1630
    total area   = 0.101635




surfaceFieldValue massFlowAtFilter_13:
    total faces  = 1644
    total area   = 0.101671




surfaceFieldValue massFlowAtFilter_14:
    total faces  = 1660
    total area   = 0.101936




surfaceFieldValue massFlowAtFilter_15:
    total faces  = 1729
    total area   = 0.101651




surfaceFieldValue massFlowAtFilter_16:
    total faces  = 1676
    total area   = 0.10175




surfaceFieldValue massFlowAtFilter_17:
    total faces  = 1585
    total area   = 0.101694




surfaceFieldValue massFlowAtFilter_18:
    total faces  = 1659
    total area   = 0.101697




surfaceFieldValue massFlowAtFilter_19:
    total faces  = 1622
    total area   = 0.101642




surfaceFieldValue massFlowAtFilter_20:
    total faces  = 1688
    total area   = 0.101551




surfaceFieldValue massFlowAtFilter_21:
    total faces  = 1768
    total area   = 0.101636




surfaceFieldValue massFlowAtFilter_22:
    total faces  = 1645
    total area   = 0.101658




surfaceFieldValue massFlowAtFilter_23:
    total faces  = 1720
    total area   = 0.101604




surfaceFieldValue massFlowAtFilter_24:
    total faces  = 1660
    total area   = 0.1016




surfaceFieldValue massFlowAtFilter_25:
    total faces  = 1620
    total area   = 0.101673




surfaceFieldValue massFlowAtFilter_26:
    total faces  = 1676
    total area   = 0.101691




surfaceFieldValue massFlowAtFilter_27:
    total faces  = 1642
    total area   = 0.10161




surfaceFieldValue massFlowAtFilter_28:
    total faces  = 1644
    total area   = 0.101632




surfaceFieldValue massFlowAtFilter_29:
    total faces  = 1724
    total area   = 0.101646




surfaceFieldValue massFlowAtFilter_30:
    total faces  = 1700
    total area   = 0.101593




surfaceFieldValue massFlowAtFilter_31:
    total faces  = 1768
    total area   = 0.101606




surfaceFieldValue massFlowAtFilter_32:
    total faces  = 1678
    total area   = 0.101611




surfaceFieldValue massFlowAtFilter_33:
    total faces  = 1698
    total area   = 0.10163




surfaceFieldValue massFlowAtFilter_34:
    total faces  = 1654
    total area   = 0.101668




surfaceFieldValue massFlowAtFilter_35:
    total faces  = 1768
    total area   = 0.10164




surfaceFieldValue massFlowAtFilter_36:
    total faces  = 1720
    total area   = 0.101696




surfaceFieldValue massFlowAtFilter_37:
    total faces  = 1622
    total area   = 0.101666




surfaceFieldValue massFlowAtFilter_38:
    total faces  = 1694
    total area   = 0.101633




surfaceFieldValue massFlowAtFilter_39:
    total faces  = 1748
    total area   = 0.101648




surfaceFieldValue massFlowAtFilter_40:
    total faces  = 1642
    total area   = 0.101703




surfaceFieldValue massFlowAtFilter_41:
    total faces  = 1724
    total area   = 0.101696




surfaceFieldValue massFlowAtFilter_42:
    total faces  = 1606
    total area   = 0.101687




surfaceFieldValue massFlowAtFilter_43:
    total faces  = 1676
    total area   = 0.101673




surfaceFieldValue massFlowAtFilter_44:
    total faces  = 1618
    total area   = 0.10173




surfaceFieldValue massFlowAtFilter_45:
    total faces  = 1572
    total area   = 0.101681




surfaceFieldValue massFlowAtFilter_46:
    total faces  = 1632
    total area   = 0.101749




surfaceFieldValue massFlowAtFilter_47:
    total faces  = 1606
    total area   = 0.101668




surfaceFieldValue massFlowAtFilter_48:
    total faces  = 1612
    total area   = 0.101664




surfaceFieldValue massFlowAtFilter_49:
    total faces  = 1692
    total area   = 0.101681




surfaceFieldValue massFlowAtFilter_50:
    total faces  = 1668
    total area   = 0.101671




surfaceFieldValue massFlowAtFilter_51:
    total faces  = 1724
    total area   = 0.101676




surfaceFieldValue massFlowAtFilter_52:
    total faces  = 1630
    total area   = 0.101686




surfaceFieldValue massFlowAtFilter_53:
    total faces  = 1644
    total area   = 0.101679




surfaceFieldValue massFlowAtFilter_54:
    total faces  = 1630
    total area   = 0.102273




surfaceFieldValue massFlowAtFilter_55:
    total faces  = 1724
    total area   = 0.101724




surfaceFieldValue massFlowAtFilter_56:
    total faces  = 1676
    total area   = 0.101769




surfaceFieldValue massFlowAtFilter_57:
    total faces  = 1580
    total area   = 0.101699




surfaceFieldValue massFlowAtFilter_58:
    total faces  = 1652
    total area   = 0.10171




surfaceFieldValue massFlowAtFilter_59:
    total faces  = 1622
    total area   = 0.1017




surfaceFieldValue massFlowAtFilter_60:
    total faces  = 1646
    total area   = 0.101715




surfaceFieldValue massFlowAtFilter_61:
    total faces  = 1724
    total area   = 0.10171




surfaceFieldValue massFlowAtFilter_62:
    total faces  = 1603
    total area   = 0.101691




surfaceFieldValue massFlowAtFilter_63:
    total faces  = 1676
    total area   = 0.101675




surfaceFieldValue massFlowAtFilter_64:
    total faces  = 1621
    total area   = 0.101736




surfaceFieldValue massFlowAtFilter_65:
    total faces  = 1578
    total area   = 0.101699




surfaceFieldValue massFlowAtFilter_66:
    total faces  = 1635
    total area   = 0.101781




surfaceFieldValue massFlowAtFilter_67:
    total faces  = 1598
    total area   = 0.10168




surfaceFieldValue massFlowAtFilter_68:
    total faces  = 1603
    total area   = 0.101669




surfaceFieldValue massFlowAtFilter_69:
    total faces  = 1683
    total area   = 0.10167




surfaceFieldValue massFlowAtFilter_70:
    total faces  = 1659
    total area   = 0.101688




surfaceFieldValue massFlowAtFilter_71:
    total faces  = 1724
    total area   = 0.101685




surfaceFieldValue massFlowAtFilter_72:
    total faces  = 1634
    total area   = 0.101678




surfaceFieldValue massFlowAtFilter_73:
    total faces  = 1654
    total area   = 0.101704




surfaceFieldValue massFlowAtFilter_74:
    total faces  = 1625
    total area   = 0.101785




surfaceFieldValue massFlowAtFilter_75:
    total faces  = 1724
    total area   = 0.101741




surfaceFieldValue massFlowAtFilter_76:
    total faces  = 1676
    total area   = 0.101776




surfaceFieldValue massFlowAtFilter_77:
    total faces  = 1583
    total area   = 0.101702




surfaceFieldValue massFlowAtFilter_78:
    total faces  = 1652
    total area   = 0.101719




surfaceFieldValue massFlowAtFilter_79:
    total faces  = 1704
    total area   = 0.101732




surfaceFieldValue massFlowAtFilter_80:
    total faces  = 1652
    total area   = 0.101712




surfaceFieldValue massFlowAtFilter_81:
    total faces  = 1731
    total area   = 0.101642




surfaceFieldValue massFlowAtFilter_82:
    total faces  = 1609
    total area   = 0.10168




surfaceFieldValue massFlowAtFilter_83:
    total faces  = 1686
    total area   = 0.101679




surfaceFieldValue massFlowAtFilter_84:
    total faces  = 1628
    total area   = 0.101734




surfaceFieldValue massFlowAtFilter_85:
    total faces  = 1587
    total area   = 0.101703




surfaceFieldValue massFlowAtFilter_86:
    total faces  = 1650
    total area   = 0.10173




surfaceFieldValue massFlowAtFilter_87:
    total faces  = 1613
    total area   = 0.101657




surfaceFieldValue massFlowAtFilter_88:
    total faces  = 1614
    total area   = 0.101669




surfaceFieldValue massFlowAtFilter_89:
    total faces  = 1693
    total area   = 0.101665




surfaceFieldValue massFlowAtFilter_90:
    total faces  = 1669
    total area   = 0.101669




surfaceFieldValue massFlowAtFilter_91:
    total faces  = 1731
    total area   = 0.101678




surfaceFieldValue massFlowAtFilter_92:
    total faces  = 1645
    total area   = 0.101638




surfaceFieldValue massFlowAtFilter_93:
    total faces  = 1661
    total area   = 0.101687




surfaceFieldValue massFlowAtFilter_94:
    total faces  = 1638
    total area   = 0.101725




surfaceFieldValue massFlowAtFilter_95:
    total faces  = 1731
    total area   = 0.101723




surfaceFieldValue massFlowAtFilter_96:
    total faces  = 1686
    total area   = 0.101705




surfaceFieldValue massFlowAtFilter_97:
    total faces  = 1593
    total area   = 0.101699




surfaceFieldValue massFlowAtFilter_98:
    total faces  = 1659
    total area   = 0.10171




surfaceFieldValue massFlowAtFilter_99:
    total faces  = 1710
    total area   = 0.101699


Time = 1

DILUPBiCG:  Solving for Ux, Initial residual = 1, Final residual = 4.67803e-06, No Iterations 5
DILUPBiCG:  Solving for Uy, Initial residual = 1, Final residual = 3.49794e-06, No Iterations 7
DILUPBiCG:  Solving for Uz, Initial residual = 1, Final residual = 2.98423e-06, No Iterations 6
DICPCG:  Solving for p, Initial residual = 1, Final residual = 0.096304, No Iterations 315
DICPCG:  Solving for p, Initial residual = 0.00357233, Final residual = 0.000257878, No Iterations 4
DICPCG:  Solving for p, Initial residual = 0.000493889, Final residual = 4.77899e-05, No Iterations 38
time step continuity errors : sum local = 0.0489494, global = -0.000328229, cumulative = -0.000328229
DILUPBiCG:  Solving for epsilon, Initial residual = 0.049239, Final residual = 1.41457e-06, No Iterations 4
DILUPBiCG:  Solving for k, Initial residual = 1, Final residual = 8.393e-07, No Iterations 6
ExecutionTime = 5.87 s  ClockTime = 6 s

Time = 2

DILUPBiCG:  Solving for Ux, Initial residual = 0.00011605, Final residual = 3.13766e-06, No Iterations 2
DILUPBiCG:  Solving for Uy, Initial residual = 5.33574e-05, Final residual = 2.89084e-07, No Iterations 3
DILUPBiCG:  Solving for Uz, Initial residual = 0.000108101, Final residual = 2.23509e-06, No Iterations 2
DICPCG:  Solving for p, Initial residual = 0.00931421, Final residual = 0.000923873, No Iterations 123
DICPCG:  Solving for p, Initial residual = 0.00548606, Final residual = 0.000548548, No Iterations 8
DICPCG:  Solving for p, Initial residual = 0.000874587, Final residual = 8.67743e-05, No Iterations 283
time step continuity errors : sum local = 0.0241833, global = 5.019e-05, cumulative = -0.000278039
DILUPBiCG:  Solving for epsilon, Initial residual = 0.0137958, Final residual = 9.38745e-07, No Iterations 4
DILUPBiCG:  Solving for k, Initial residual = 0.523131, Final residual = 4.38776e-08, No Iterations 7
ExecutionTime = 10.09 s  ClockTime = 11 s

Time = 3

DILUPBiCG:  Solving for Ux, Initial residual = 1.73686e-05, Final residual = 2.9981e-06, No Iterations 1
DILUPBiCG:  Solving for Uy, Initial residual = 1.11747e-05, Final residual = 2.16903e-06, No Iterations 1
DILUPBiCG:  Solving for Uz, Initial residual = 2.66694e-05, Final residual = 8.22084e-06, No Iterations 1
DICPCG:  Solving for p, Initial residual = 0.0189683, Final residual = 0.00185423, No Iterations 294
DICPCG:  Solving for p, Initial residual = 0.00739433, Final residual = 0.000666911, No Iterations 4
DICPCG:  Solving for p, Initial residual = 0.00103132, Final residual = 9.82362e-05, No Iterations 54
time step continuity errors : sum local = 0.0532896, global = 0.000653748, cumulative = 0.000375709
DILUPBiCG:  Solving for epsilon, Initial residual = 0.0182607, Final residual = 1.1787e-06, No Iterations 4
DILUPBiCG:  Solving for k, Initial residual = 0.262131, Final residual = 5.39595e-07, No Iterations 6
ExecutionTime = 13.74 s  ClockTime = 14 s

Time = 4

DILUPBiCG:  Solving for Ux, Initial residual = 4.67139e-06, Final residual = 4.67139e-06, No Iterations 0
DILUPBiCG:  Solving for Uy, Initial residual = 1.86077e-06, Final residual = 1.86077e-06, No Iterations 0
DILUPBiCG:  Solving for Uz, Initial residual = 6.22668e-06, Final residual = 6.22668e-06, No Iterations 0
DICPCG:  Solving for p, Initial residual = 0.0781581, Final residual = 0.00758606, No Iterations 305
DICPCG:  Solving for p, Initial residual = 0.00530911, Final residual = 0.000435817, No Iterations 4
DICPCG:  Solving for p, Initial residual = 0.00070102, Final residual = 6.88261e-05, No Iterations 53
time step continuity errors : sum local = 0.0350305, global = 0.000339148, cumulative = 0.000714857
DILUPBiCG:  Solving for epsilon, Initial residual = 0.0175113, Final residual = 5.77653e-06, No Iterations 3
DILUPBiCG:  Solving for k, Initial residual = 0.154778, Final residual = 7.16327e-07, No Iterations 5
ExecutionTime = 17.32 s  ClockTime = 18 s

Time = 5

DILUPBiCG:  Solving for Ux, Initial residual = 1.38604e-05, Final residual = 2.81025e-06, No Iterations 1
DILUPBiCG:  Solving for Uy, Initial residual = 8.20354e-06, Final residual = 8.20354e-06, No Iterations 0
DILUPBiCG:  Solving for Uz, Initial residual = 1.30422e-05, Final residual = 3.22017e-06, No Iterations 1
DICPCG:  Solving for p, Initial residual = 0.0197153, Final residual = 0.00195705, No Iterations 48
DICPCG:  Solving for p, Initial residual = 0.00646316, Final residual = 0.000640401, No Iterations 253
DICPCG:  Solving for p, Initial residual = 0.00203123, Final residual = 0.000192909, No Iterations 7
time step continuity errors : sum local = 0.0620298, global = -0.000120345, cumulative = 0.000594512
DILUPBiCG:  Solving for epsilon, Initial residual = 0.0150059, Final residual = 4.27079e-06, No Iterations 3
DILUPBiCG:  Solving for k, Initial residual = 0.110823, Final residual = 5.95146e-07, No Iterations 5
ExecutionTime = 20.6 s  ClockTime = 21 s

Time = 6

DILUPBiCG:  Solving for Ux, Initial residual = 1.86285e-05, Final residual = 4.15531e-06, No Iterations 1
DILUPBiCG:  Solving for Uy, Initial residual = 1.20465e-05, Final residual = 2.46135e-06, No Iterations 1
DILUPBiCG:  Solving for Uz, Initial residual = 1.50385e-05, Final residual = 4.66581e-06, No Iterations 1
DICPCG:  Solving for p, Initial residual = 0.0230079, Final residual = 0.00225904, No Iterations 297
DICPCG:  Solving for p, Initial residual = 0.00810554, Final residual = 0.000805757, No Iterations 6
DICPCG:  Solving for p, Initial residual = 0.00120136, Final residual = 0.000118176, No Iterations 57
time step continuity errors : sum local = 0.0479515, global = -0.000367573, cumulative = 0.000226938
DILUPBiCG:  Solving for epsilon, Initial residual = 0.0138556, Final residual = 4.26313e-06, No Iterations 3
DILUPBiCG:  Solving for k, Initial residual = 0.0944521, Final residual = 8.24036e-07, No Iterations 5
ExecutionTime = 24.23 s  ClockTime = 25 s

Time = 7

DILUPBiCG:  Solving for Ux, Initial residual = 1.32614e-05, Final residual = 6.93533e-07, No Iterations 2
DILUPBiCG:  Solving for Uy, Initial residual = 3.97071e-06, Final residual = 3.97071e-06, No Iterations 0
DILUPBiCG:  Solving for Uz, Initial residual = 7.61519e-06, Final residual = 7.61519e-06, No Iterations 0
DICPCG:  Solving for p, Initial residual = 0.0810974, Final residual = 0.00792278, No Iterations 286
DICPCG:  Solving for p, Initial residual = 0.00497215, Final residual = 0.000470934, No Iterations 4
DICPCG:  Solving for p, Initial residual = 0.000684912, Final residual = 6.69393e-05, No Iterations 58
time step continuity errors : sum local = 0.0292126, global = -0.000309489, cumulative = -8.25503e-05
DILUPBiCG:  Solving for epsilon, Initial residual = 0.0127445, Final residual = 8.60817e-06, No Iterations 3
DILUPBiCG:  Solving for k, Initial residual = 0.0784159, Final residual = 4.71477e-08, No Iterations 6
ExecutionTime = 27.79 s  ClockTime = 28 s

Time = 8

DILUPBiCG:  Solving for Ux, Initial residual = 1.6257e-05, Final residual = 3.14349e-06, No Iterations 1
DILUPBiCG:  Solving for Uy, Initial residual = 9.96905e-06, Final residual = 9.96905e-06, No Iterations 0
DILUPBiCG:  Solving for Uz, Initial residual = 1.50159e-05, Final residual = 3.58201e-06, No Iterations 1
DICPCG:  Solving for p, Initial residual = 0.0234056, Final residual = 0.00232007, No Iterations 285
DICPCG:  Solving for p, Initial residual = 0.00377744, Final residual = 0.000372204, No Iterations 17
DICPCG:  Solving for p, Initial residual = 0.000659606, Final residual = 6.55524e-05, No Iterations 51
time step continuity errors : sum local = 0.0209902, global = -9.21655e-05, cumulative = -0.000174716
DILUPBiCG:  Solving for epsilon, Initial residual = 0.012473, Final residual = 7.14453e-07, No Iterations 4
DILUPBiCG:  Solving for k, Initial residual = 0.0665959, Final residual = 4.06349e-08, No Iterations 6
ExecutionTime = 31.44 s  ClockTime = 32 s

Time = 9

DILUPBiCG:  Solving for Ux, Initial residual = 6.88397e-06, Final residual = 6.88397e-06, No Iterations 0
DILUPBiCG:  Solving for Uy, Initial residual = 1.2268e-05, Final residual = 2.52243e-06, No Iterations 1
DILUPBiCG:  Solving for Uz, Initial residual = 7.99145e-06, Final residual = 7.99145e-06, No Iterations 0
DICPCG:  Solving for p, Initial residual = 0.0198108, Final residual = 0.00191418, No Iterations 280
DICPCG:  Solving for p, Initial residual = 0.00725839, Final residual = 0.000721386, No Iterations 12
DICPCG:  Solving for p, Initial residual = 0.00117839, Final residual = 0.000109811, No Iterations 53
time step continuity errors : sum local = 0.026328, global = 0.000386294, cumulative = 0.000211578
DILUPBiCG:  Solving for epsilon, Initial residual = 0.013374, Final residual = 8.96275e-07, No Iterations 4
DILUPBiCG:  Solving for k, Initial residual = 0.0592959, Final residual = 6.58211e-07, No Iterations 5
ExecutionTime = 34.95 s  ClockTime = 35 s

Time = 10

DILUPBiCG:  Solving for Ux, Initial residual = 3.55343e-06, Final residual = 3.55343e-06, No Iterations 0
DILUPBiCG:  Solving for Uy, Initial residual = 2.29995e-06, Final residual = 2.29995e-06, No Iterations 0
DILUPBiCG:  Solving for Uz, Initial residual = 4.70235e-06, Final residual = 4.70235e-06, No Iterations 0
DICPCG:  Solving for p, Initial residual = 0.0405378, Final residual = 0.0039135, No Iterations 285
DICPCG:  Solving for p, Initial residual = 0.00502461, Final residual = 0.000487674, No Iterations 4
DICPCG:  Solving for p, Initial residual = 0.000689569, Final residual = 6.50279e-05, No Iterations 58
time step continuity errors : sum local = 0.0183384, global = 0.000222775, cumulative = 0.000434353
DILUPBiCG:  Solving for epsilon, Initial residual = 0.0116693, Final residual = 5.78281e-06, No Iterations 3
DILUPBiCG:  Solving for k, Initial residual = 0.0532935, Final residual = 4.53828e-07, No Iterations 5
ExecutionTime = 38.44 s  ClockTime = 39 s

Time = 11

DILUPBiCG:  Solving for Ux, Initial residual = 4.77608e-06, Final residual = 4.77608e-06, No Iterations 0
DILUPBiCG:  Solving for Uy, Initial residual = 2.47225e-06, Final residual = 2.47225e-06, No Iterations 0
DILUPBiCG:  Solving for Uz, Initial residual = 4.623e-06, Final residual = 4.623e-06, No Iterations 0
DICPCG:  Solving for p, Initial residual = 0.0238381, Final residual = 0.00234346, No Iterations 286
DICPCG:  Solving for p, Initial residual = 0.00352661, Final residual = 0.000342796, No Iterations 4
DICPCG:  Solving for p, Initial residual = 0.000487868, Final residual = 4.69243e-05, No Iterations 61
time step continuity errors : sum local = 0.0107426, global = 0.000210305, cumulative = 0.000644658
DILUPBiCG:  Solving for epsilon, Initial residual = 0.0104924, Final residual = 3.79676e-06, No Iterations 3
DILUPBiCG:  Solving for k, Initial residual = 0.0492557, Final residual = 4.92816e-07, No Iterations 5
ExecutionTime = 41.94 s  ClockTime = 42 s

Time = 12

DILUPBiCG:  Solving for Ux, Initial residual = 6.3205e-06, Final residual = 6.3205e-06, No Iterations 0
DILUPBiCG:  Solving for Uy, Initial residual = 5.3853e-06, Final residual = 5.3853e-06, No Iterations 0
DILUPBiCG:  Solving for Uz, Initial residual = 5.45259e-06, Final residual = 5.45259e-06, No Iterations 0
DICPCG:  Solving for p, Initial residual = 0.00982102, Final residual = 0.000968931, No Iterations 48
DICPCG:  Solving for p, Initial residual = 0.00224463, Final residual = 0.00022006, No Iterations 253
DICPCG:  Solving for p, Initial residual = 0.000918373, Final residual = 8.85918e-05, No Iterations 20
time step continuity errors : sum local = 0.010946, global = -0.000105804, cumulative = 0.000538854
DILUPBiCG:  Solving for epsilon, Initial residual = 0.00993436, Final residual = 2.89712e-06, No Iterations 3
DILUPBiCG:  Solving for k, Initial residual = 0.0466744, Final residual = 6.47873e-07, No Iterations 5
ExecutionTime = 45.23 s  ClockTime = 46 s

Time = 13

DILUPBiCG:  Solving for Ux, Initial residual = 6.20939e-06, Final residual = 6.20939e-06, No Iterations 0
DILUPBiCG:  Solving for Uy, Initial residual = 6.39625e-06, Final residual = 6.39625e-06, No Iterations 0
DILUPBiCG:  Solving for Uz, Initial residual = 5.65096e-06, Final residual = 5.65096e-06, No Iterations 0
DICPCG:  Solving for p, Initial residual = 0.0107907, Final residual = 0.00107285, No Iterations 283
DICPCG:  Solving for p, Initial residual = 0.0364312, Final residual = 0.00347716, No Iterations 15
DICPCG:  Solving for p, Initial residual = 0.00654924, Final residual = 0.000642247, No Iterations 49
time step continuity errors : sum local = 0.00814645, global = -7.06403e-05, cumulative = 0.000468214
DILUPBiCG:  Solving for epsilon, Initial residual = 0.00980155, Final residual = 3.39395e-06, No Iterations 3
DILUPBiCG:  Solving for k, Initial residual = 0.0443472, Final residual = 1.8953e-08, No Iterations 6
ExecutionTime = 48.72 s  ClockTime = 49 s

Time = 14

DILUPBiCG:  Solving for Ux, Initial residual = 4.69978e-06, Final residual = 4.69978e-06, No Iterations 0
DILUPBiCG:  Solving for Uy, Initial residual = 5.22169e-06, Final residual = 5.22169e-06, No Iterations 0
DILUPBiCG:  Solving for Uz, Initial residual = 4.58687e-06, Final residual = 4.58687e-06, No Iterations 0
DICPCG:  Solving for p, Initial residual = 0.0141736, Final residual = 0.00137947, No Iterations 286
DICPCG:  Solving for p, Initial residual = 0.00860892, Final residual = 0.000832042, No Iterations 5
DICPCG:  Solving for p, Initial residual = 0.0012202, Final residual = 0.000118585, No Iterations 58
time step continuity errors : sum local = 0.00882503, global = -0.00010678, cumulative = 0.000361434
DILUPBiCG:  Solving for epsilon, Initial residual = 0.00983695, Final residual = 6.61313e-06, No Iterations 3
DILUPBiCG:  Solving for k, Initial residual = 0.0419431, Final residual = 1.83792e-08, No Iterations 6
ExecutionTime = 52.25 s  ClockTime = 53 s

Time = 15

DILUPBiCG:  Solving for Ux, Initial residual = 2.98785e-06, Final residual = 2.98785e-06, No Iterations 0
DILUPBiCG:  Solving for Uy, Initial residual = 2.54434e-06, Final residual = 2.54434e-06, No Iterations 0
DILUPBiCG:  Solving for Uz, Initial residual = 3.19357e-06, Final residual = 3.19357e-06, No Iterations 0
DICPCG:  Solving for p, Initial residual = 0.0248374, Final residual = 0.00226558, No Iterations 288
DICPCG:  Solving for p, Initial residual = 0.00538303, Final residual = 0.000494201, No Iterations 4
DICPCG:  Solving for p, Initial residual = 0.00071377, Final residual = 6.90551e-05, No Iterations 58
time step continuity errors : sum local = 0.00768722, global = -0.000109932, cumulative = 0.000251503
DILUPBiCG:  Solving for epsilon, Initial residual = 0.00977602, Final residual = 4.74712e-06, No Iterations 3
DILUPBiCG:  Solving for k, Initial residual = 0.0394939, Final residual = 1.74778e-08, No Iterations 6
ExecutionTime = 55.77 s  ClockTime = 56 s

Time = 16

DILUPBiCG:  Solving for Ux, Initial residual = 2.44876e-06, Final residual = 2.44876e-06, No Iterations 0
DILUPBiCG:  Solving for Uy, Initial residual = 7.47284e-07, Final residual = 7.47284e-07, No Iterations 0
DILUPBiCG:  Solving for Uz, Initial residual = 2.62908e-06, Final residual = 2.62908e-06, No Iterations 0
DICPCG:  Solving for p, Initial residual = 0.0611443, Final residual = 0.00597035, No Iterations 286
DICPCG:  Solving for p, Initial residual = 0.00391818, Final residual = 0.000366654, No Iterations 4
DICPCG:  Solving for p, Initial residual = 0.000528952, Final residual = 5.06607e-05, No Iterations 59
time step continuity errors : sum local = 0.00532713, global = -0.000102424, cumulative = 0.000149079
DILUPBiCG:  Solving for epsilon, Initial residual = 0.00960883, Final residual = 4.10977e-06, No Iterations 3
DILUPBiCG:  Solving for k, Initial residual = 0.0370843, Final residual = 2.3077e-07, No Iterations 5
ExecutionTime = 59.29 s  ClockTime = 60 s

Time = 17

DILUPBiCG:  Solving for Ux, Initial residual = 2.84346e-06, Final residual = 2.84346e-06, No Iterations 0
DILUPBiCG:  Solving for Uy, Initial residual = 2.20113e-06, Final residual = 2.20113e-06, No Iterations 0
DILUPBiCG:  Solving for Uz, Initial residual = 2.8762e-06, Final residual = 2.8762e-06, No Iterations 0
DICPCG:  Solving for p, Initial residual = 0.0117375, Final residual = 0.00112216, No Iterations 281
DICPCG:  Solving for p, Initial residual = 0.00260881, Final residual = 0.000251166, No Iterations 16
DICPCG:  Solving for p, Initial residual = 0.000467038, Final residual = 4.5383e-05, No Iterations 51
time step continuity errors : sum local = 0.00320658, global = -5.10036e-05, cumulative = 9.80755e-05
DILUPBiCG:  Solving for epsilon, Initial residual = 0.00937027, Final residual = 4.39562e-06, No Iterations 3
DILUPBiCG:  Solving for k, Initial residual = 0.0348412, Final residual = 2.07327e-07, No Iterations 5
ExecutionTime = 62.79 s  ClockTime = 63 s

Time = 18

DILUPBiCG:  Solving for Ux, Initial residual = 2.79123e-06, Final residual = 2.79123e-06, No Iterations 0
DILUPBiCG:  Solving for Uy, Initial residual = 2.62258e-06, Final residual = 2.62258e-06, No Iterations 0
DILUPBiCG:  Solving for Uz, Initial residual = 3.00743e-06, Final residual = 3.00743e-06, No Iterations 0
DICPCG:  Solving for p, Initial residual = 0.00953829, Final residual = 0.000913545, No Iterations 94
DICPCG:  Solving for p, Initial residual = 0.00250174, Final residual = 0.000249372, No Iterations 265
DICPCG:  Solving for p, Initial residual = 0.00265512, Final residual = 0.000252708, No Iterations 8
time step continuity errors : sum local = 0.00677002, global = 0.00010871, cumulative = 0.000206786
DILUPBiCG:  Solving for epsilon, Initial residual = 0.00913552, Final residual = 4.8591e-06, No Iterations 3
DILUPBiCG:  Solving for k, Initial residual = 0.032879, Final residual = 1.9528e-07, No Iterations 5
ExecutionTime = 66.4 s  ClockTime = 67 s

Time = 19

DILUPBiCG:  Solving for Ux, Initial residual = 2.31793e-06, Final residual = 2.31793e-06, No Iterations 0
DILUPBiCG:  Solving for Uy, Initial residual = 2.16975e-06, Final residual = 2.16975e-06, No Iterations 0
DILUPBiCG:  Solving for Uz, Initial residual = 2.79313e-06, Final residual = 2.79313e-06, No Iterations 0
DICPCG:  Solving for p, Initial residual = 0.0111794, Final residual = 0.00107537, No Iterations 285
DICPCG:  Solving for p, Initial residual = 0.0152205, Final residual = 0.00148341, No Iterations 13
DICPCG:  Solving for p, Initial residual = 0.00254593, Final residual = 0.000243786, No Iterations 51
time step continuity errors : sum local = 0.00348228, global = 4.35336e-05, cumulative = 0.000250319
DILUPBiCG:  Solving for epsilon, Initial residual = 0.00892188, Final residual = 5.55343e-06, No Iterations 3
DILUPBiCG:  Solving for k, Initial residual = 0.0312437, Final residual = 1.90138e-07, No Iterations 5
ExecutionTime = 69.92 s  ClockTime = 70 s

Time = 20

DILUPBiCG:  Solving for Ux, Initial residual = 1.82568e-06, Final residual = 1.82568e-06, No Iterations 0
DILUPBiCG:  Solving for Uy, Initial residual = 1.30805e-06, Final residual = 1.30805e-06, No Iterations 0
DILUPBiCG:  Solving for Uz, Initial residual = 2.45026e-06, Final residual = 2.45026e-06, No Iterations 0
DICPCG:  Solving for p, Initial residual = 0.0153637, Final residual = 0.00147958, No Iterations 289
DICPCG:  Solving for p, Initial residual = 0.00664039, Final residual = 0.000617323, No Iterations 5
DICPCG:  Solving for p, Initial residual = 0.000921544, Final residual = 8.81925e-05, No Iterations 58
time step continuity errors : sum local = 0.00316754, global = 4.50677e-05, cumulative = 0.000295387
DILUPBiCG:  Solving for epsilon, Initial residual = 0.00872566, Final residual = 6.45204e-06, No Iterations 3
DILUPBiCG:  Solving for k, Initial residual = 0.0299143, Final residual = 1.86019e-07, No Iterations 5
ExecutionTime = 73.42 s  ClockTime = 74 s

forces porousforces write:
    sum of forces:
        pressure : (0 0 0)
        viscous  : (0 0 0)
        porous   : (85263 4.12509e-13 67610)
    sum of moments:
        pressure : (0 0 0)
        viscous  : (0 0 0)
        porous   : (59389.2 8348.98 -77296.6)

volFieldValue volFieldValue_0 write:
    volIntegrate(cz_solid_0) of U = (1.22551e-09 -4.04928e-09 -2.49862e-09)

surfaceFieldValue massFlowAtFilter_0 write:
    sum(fz_solid_0) of phi = -6.88041e-05

volFieldValue volFieldValue_1 write:
    volIntegrate(cz_solid_1) of U = (4.21634e-10 -3.86662e-09 -2.03429e-09)

surfaceFieldValue massFlowAtFilter_1 write:
    sum(fz_solid_1) of phi = -1.25113e-05

volFieldValue volFieldValue_2 write:
    volIntegrate(cz_solid_2) of U = (-1.44921e-10 -3.36469e-09 -1.47868e-09)

surfaceFieldValue massFlowAtFilter_2 write:
    sum(fz_solid_2) of phi = -3.19891e-05

volFieldValue volFieldValue_3 write:
    volIntegrate(cz_solid_3) of U = (-5.51685e-10 -3.18575e-09 -9.22929e-10)

surfaceFieldValue massFlowAtFilter_3 write:
    sum(fz_solid_3) of phi = -2.24769e-06

volFieldValue volFieldValue_4 write:
    volIntegrate(cz_solid_4) of U = (-8.79757e-10 -3.15875e-09 -5.48056e-10)

surfaceFieldValue massFlowAtFilter_4 write:
    sum(fz_solid_4) of phi = -1.28401e-05

volFieldValue volFieldValue_5 write:
    volIntegrate(cz_solid_5) of U = (-1.32678e-09 -3.21235e-09 -1.85984e-10)

surfaceFieldValue massFlowAtFilter_5 write:
    sum(fz_solid_5) of phi = 1.00715e-05

volFieldValue volFieldValue_6 write:
    volIntegrate(cz_solid_6) of U = (-1.86058e-09 -3.22493e-09 3.25067e-10)

surfaceFieldValue massFlowAtFilter_6 write:
    sum(fz_solid_6) of phi = -4.31437e-05

volFieldValue volFieldValue_7 write:
    volIntegrate(cz_solid_7) of U = (-2.23262e-09 -3.37211e-09 1.0865e-09)

surfaceFieldValue massFlowAtFilter_7 write:
    sum(fz_solid_7) of phi = 1.02653e-05

volFieldValue volFieldValue_8 write:
    volIntegrate(cz_solid_8) of U = (-2.31155e-09 -3.54696e-09 2.0621e-09)

surfaceFieldValue massFlowAtFilter_8 write:
    sum(fz_solid_8) of phi = 3.36909e-05

volFieldValue volFieldValue_9 write:
    volIntegrate(cz_solid_9) of U = (-1.8874e-09 -3.78056e-09 3.14142e-09)

surfaceFieldValue massFlowAtFilter_9 write:
    sum(fz_solid_9) of phi = 3.40652e-05

volFieldValue volFieldValue_10 write:
    volIntegrate(cz_solid_10) of U = (-1.07343e-09 -3.99796e-09 4.05055e-09)

surfaceFieldValue massFlowAtFilter_10 write:
    sum(fz_solid_10) of phi = 4.36322e-05

volFieldValue volFieldValue_11 write:
    volIntegrate(cz_solid_11) of U = (1.68658e-10 -4.31428e-09 4.76417e-09)

surfaceFieldValue massFlowAtFilter_11 write:
    sum(fz_solid_11) of phi = -5.02076e-05

volFieldValue volFieldValue_12 write:
    volIntegrate(cz_solid_12) of U = (1.84138e-09 -4.95782e-09 5.08882e-09)

surfaceFieldValue massFlowAtFilter_12 write:
    sum(fz_solid_12) of phi = 1.64362e-05

volFieldValue volFieldValue_13 write:
    volIntegrate(cz_solid_13) of U = (3.60128e-09 -5.53576e-09 4.79269e-09)

surfaceFieldValue massFlowAtFilter_13 write:
    sum(fz_solid_13) of phi = 9.94721e-05

volFieldValue volFieldValue_14 write:
    volIntegrate(cz_solid_14) of U = (5.11011e-09 -6.2246e-09 3.70151e-09)

surfaceFieldValue massFlowAtFilter_14 write:
    sum(fz_solid_14) of phi = 6.7171e-06

volFieldValue volFieldValue_15 write:
    volIntegrate(cz_solid_15) of U = (5.97306e-09 -6.12479e-09 1.90804e-09)

surfaceFieldValue massFlowAtFilter_15 write:
    sum(fz_solid_15) of phi = 6.21931e-05

volFieldValue volFieldValue_16 write:
    volIntegrate(cz_solid_16) of U = (5.87029e-09 -5.92672e-09 1.02242e-10)

surfaceFieldValue massFlowAtFilter_16 write:
    sum(fz_solid_16) of phi = 8.77321e-05

volFieldValue volFieldValue_17 write:
    volIntegrate(cz_solid_17) of U = (4.99185e-09 -5.54471e-09 -1.39534e-09)

surfaceFieldValue massFlowAtFilter_17 write:
    sum(fz_solid_17) of phi = 8.97717e-05

volFieldValue volFieldValue_18 write:
    volIntegrate(cz_solid_18) of U = (3.74695e-09 -5.04912e-09 -2.34139e-09)

surfaceFieldValue massFlowAtFilter_18 write:
    sum(fz_solid_18) of phi = 2.1603e-05

volFieldValue volFieldValue_19 write:
    volIntegrate(cz_solid_19) of U = (2.38187e-09 -4.32571e-09 -2.62443e-09)

surfaceFieldValue massFlowAtFilter_19 write:
    sum(fz_solid_19) of phi = -1.55186e-05

volFieldValue volFieldValue_20 write:
    volIntegrate(cz_solid_20) of U = (1.02544e-09 -8.00305e-09 -1.79687e-09)

surfaceFieldValue massFlowAtFilter_20 write:
    sum(fz_solid_20) of phi = 1.95215e-06

volFieldValue volFieldValue_21 write:
    volIntegrate(cz_solid_21) of U = (3.79495e-10 -7.31302e-09 -1.46223e-09)

surfaceFieldValue massFlowAtFilter_21 write:
    sum(fz_solid_21) of phi = 9.76972e-06

volFieldValue volFieldValue_22 write:
    volIntegrate(cz_solid_22) of U = (-8.42728e-11 -6.34018e-09 -1.029e-09)

surfaceFieldValue massFlowAtFilter_22 write:
    sum(fz_solid_22) of phi = 7.13986e-08

volFieldValue volFieldValue_23 write:
    volIntegrate(cz_solid_23) of U = (-3.98626e-10 -6.24333e-09 -5.90264e-10)

surfaceFieldValue massFlowAtFilter_23 write:
    sum(fz_solid_23) of phi = 2.57754e-06

volFieldValue volFieldValue_24 write:
    volIntegrate(cz_solid_24) of U = (-6.55756e-10 -6.32026e-09 -3.12012e-10)

surfaceFieldValue massFlowAtFilter_24 write:
    sum(fz_solid_24) of phi = 1.36198e-05

volFieldValue volFieldValue_25 write:
    volIntegrate(cz_solid_25) of U = (-1.0268e-09 -6.22637e-09 -2.9787e-11)

surfaceFieldValue massFlowAtFilter_25 write:
    sum(fz_solid_25) of phi = 3.70527e-06

volFieldValue volFieldValue_26 write:
    volIntegrate(cz_solid_26) of U = (-1.4478e-09 -6.31673e-09 3.56778e-10)

surfaceFieldValue massFlowAtFilter_26 write:
    sum(fz_solid_26) of phi = 6.15232e-06

volFieldValue volFieldValue_27 write:
    volIntegrate(cz_solid_27) of U = (-1.69293e-09 -6.45768e-09 9.51487e-10)

surfaceFieldValue massFlowAtFilter_27 write:
    sum(fz_solid_27) of phi = 1.48512e-05

volFieldValue volFieldValue_28 write:
    volIntegrate(cz_solid_28) of U = (-1.70184e-09 -6.77278e-09 1.69021e-09)

surfaceFieldValue massFlowAtFilter_28 write:
    sum(fz_solid_28) of phi = 3.62099e-05

volFieldValue volFieldValue_29 write:
    volIntegrate(cz_solid_29) of U = (-1.3124e-09 -7.16593e-09 2.50441e-09)

surfaceFieldValue massFlowAtFilter_29 write:
    sum(fz_solid_29) of phi = 3.10125e-05

volFieldValue volFieldValue_30 write:
    volIntegrate(cz_solid_30) of U = (-6.2123e-10 -7.69926e-09 3.17423e-09)

surfaceFieldValue massFlowAtFilter_30 write:
    sum(fz_solid_30) of phi = 3.03186e-05

volFieldValue volFieldValue_31 write:
    volIntegrate(cz_solid_31) of U = (3.68285e-10 -8.59642e-09 3.65729e-09)

surfaceFieldValue massFlowAtFilter_31 write:
    sum(fz_solid_31) of phi = -1.70901e-05

volFieldValue volFieldValue_32 write:
    volIntegrate(cz_solid_32) of U = (1.64851e-09 -1.0152e-08 3.86016e-09)

surfaceFieldValue massFlowAtFilter_32 write:
    sum(fz_solid_32) of phi = -1.65203e-05

volFieldValue volFieldValue_33 write:
    volIntegrate(cz_solid_33) of U = (2.9743e-09 -1.14733e-08 3.68109e-09)

surfaceFieldValue massFlowAtFilter_33 write:
    sum(fz_solid_33) of phi = 2.88413e-05

volFieldValue volFieldValue_34 write:
    volIntegrate(cz_solid_34) of U = (4.15796e-09 -1.27681e-08 2.92763e-09)

surfaceFieldValue massFlowAtFilter_34 write:
    sum(fz_solid_34) of phi = -2.56596e-05

volFieldValue volFieldValue_35 write:
    volIntegrate(cz_solid_35) of U = (4.82385e-09 -1.30071e-08 1.73278e-09)

surfaceFieldValue massFlowAtFilter_35 write:
    sum(fz_solid_35) of phi = 3.06639e-05

volFieldValue volFieldValue_36 write:
    volIntegrate(cz_solid_36) of U = (4.81863e-09 -1.24879e-08 4.51638e-10)

surfaceFieldValue massFlowAtFilter_36 write:
    sum(fz_solid_36) of phi = 3.70767e-05

volFieldValue volFieldValue_37 write:
    volIntegrate(cz_solid_37) of U = (4.14425e-09 -1.11281e-08 -7.41697e-10)

surfaceFieldValue massFlowAtFilter_37 write:
    sum(fz_solid_37) of phi = 6.59487e-05

volFieldValue volFieldValue_38 write:
    volIntegrate(cz_solid_38) of U = (3.1348e-09 -9.85629e-09 -1.56766e-09)

surfaceFieldValue massFlowAtFilter_38 write:
    sum(fz_solid_38) of phi = 7.62523e-06

volFieldValue volFieldValue_39 write:
    volIntegrate(cz_solid_39) of U = (2.0119e-09 -8.4026e-09 -1.87327e-09)

surfaceFieldValue massFlowAtFilter_39 write:
    sum(fz_solid_39) of phi = 1.13734e-05

volFieldValue volFieldValue_40 write:
    volIntegrate(cz_solid_40) of U = (5.80826e-10 -7.18022e-09 -4.6085e-10)

surfaceFieldValue massFlowAtFilter_40 write:
    sum(fz_solid_40) of phi = -8.45485e-06

volFieldValue volFieldValue_41 write:
    volIntegrate(cz_solid_41) of U = (2.50681e-10 -6.67833e-09 -3.51888e-10)

surfaceFieldValue massFlowAtFilter_41 write:
    sum(fz_solid_41) of phi = -7.37638e-07

volFieldValue volFieldValue_42 write:
    volIntegrate(cz_solid_42) of U = (2.28035e-11 -5.74952e-09 -1.48188e-10)

surfaceFieldValue massFlowAtFilter_42 write:
    sum(fz_solid_42) of phi = 3.49324e-06

volFieldValue volFieldValue_43 write:
    volIntegrate(cz_solid_43) of U = (-1.19224e-10 -5.69967e-09 3.60221e-11)

surfaceFieldValue massFlowAtFilter_43 write:
    sum(fz_solid_43) of phi = -2.88145e-07

volFieldValue volFieldValue_44 write:
    volIntegrate(cz_solid_44) of U = (-2.64063e-10 -5.6802e-09 1.05518e-10)

surfaceFieldValue massFlowAtFilter_44 write:
    sum(fz_solid_44) of phi = 7.15281e-06

volFieldValue volFieldValue_45 write:
    volIntegrate(cz_solid_45) of U = (-5.016e-10 -5.71549e-09 2.19415e-10)

surfaceFieldValue massFlowAtFilter_45 write:
    sum(fz_solid_45) of phi = 5.72729e-06

volFieldValue volFieldValue_46 write:
    volIntegrate(cz_solid_46) of U = (-7.81217e-10 -5.7232e-09 4.31863e-10)

surfaceFieldValue massFlowAtFilter_46 write:
    sum(fz_solid_46) of phi = -4.59728e-06

volFieldValue volFieldValue_47 write:
    volIntegrate(cz_solid_47) of U = (-9.30671e-10 -5.84414e-09 7.9676e-10)

surfaceFieldValue massFlowAtFilter_47 write:
    sum(fz_solid_47) of phi = -7.83008e-06

volFieldValue volFieldValue_48 write:
    volIntegrate(cz_solid_48) of U = (-8.9662e-10 -6.05588e-09 1.2678e-09)

surfaceFieldValue massFlowAtFilter_48 write:
    sum(fz_solid_48) of phi = 3.08236e-05

volFieldValue volFieldValue_49 write:
    volIntegrate(cz_solid_49) of U = (-5.77965e-10 -6.41548e-09 1.78512e-09)

surfaceFieldValue massFlowAtFilter_49 write:
    sum(fz_solid_49) of phi = 3.15531e-05

volFieldValue volFieldValue_50 write:
    volIntegrate(cz_solid_50) of U = (-4.12887e-11 -6.72698e-09 2.20024e-09)

surfaceFieldValue massFlowAtFilter_50 write:
    sum(fz_solid_50) of phi = 2.81584e-05

volFieldValue volFieldValue_51 write:
    volIntegrate(cz_solid_51) of U = (7.06286e-10 -7.55427e-09 2.48362e-09)

surfaceFieldValue massFlowAtFilter_51 write:
    sum(fz_solid_51) of phi = -1.62869e-05

volFieldValue volFieldValue_52 write:
    volIntegrate(cz_solid_52) of U = (1.66405e-09 -9.16417e-09 2.62569e-09)

surfaceFieldValue massFlowAtFilter_52 write:
    sum(fz_solid_52) of phi = -1.25364e-05

volFieldValue volFieldValue_53 write:
    volIntegrate(cz_solid_53) of U = (2.74355e-09 -1.11802e-08 2.62139e-09)

surfaceFieldValue massFlowAtFilter_53 write:
    sum(fz_solid_53) of phi = 3.22187e-05

volFieldValue volFieldValue_54 write:
    volIntegrate(cz_solid_54) of U = (3.84765e-09 -1.40256e-08 2.32908e-09)

surfaceFieldValue massFlowAtFilter_54 write:
    sum(fz_solid_54) of phi = 1.01851e-05

volFieldValue volFieldValue_55 write:
    volIntegrate(cz_solid_55) of U = (4.49125e-09 -1.60057e-08 1.83572e-09)

surfaceFieldValue massFlowAtFilter_55 write:
    sum(fz_solid_55) of phi = 3.00213e-05

volFieldValue volFieldValue_56 write:
    volIntegrate(cz_solid_56) of U = (4.14014e-09 -1.61709e-08 1.48464e-09)

surfaceFieldValue massFlowAtFilter_56 write:
    sum(fz_solid_56) of phi = -4.15197e-06

volFieldValue volFieldValue_57 write:
    volIntegrate(cz_solid_57) of U = (2.857e-09 -1.26896e-08 8.1917e-10)

surfaceFieldValue massFlowAtFilter_57 write:
    sum(fz_solid_57) of phi = 3.95976e-05

volFieldValue volFieldValue_58 write:
    volIntegrate(cz_solid_58) of U = (1.74991e-09 -9.73354e-09 -1.2347e-10)

surfaceFieldValue massFlowAtFilter_58 write:
    sum(fz_solid_58) of phi = 5.09648e-06

volFieldValue volFieldValue_59 write:
    volIntegrate(cz_solid_59) of U = (1.0494e-09 -7.69249e-09 -4.23979e-10)

surfaceFieldValue massFlowAtFilter_59 write:
    sum(fz_solid_59) of phi = 8.77849e-06

volFieldValue volFieldValue_60 write:
    volIntegrate(cz_solid_60) of U = (-2.53788e-10 -5.44097e-09 9.69418e-10)

surfaceFieldValue massFlowAtFilter_60 write:
    sum(fz_solid_60) of phi = -2.8083e-06

volFieldValue volFieldValue_61 write:
    volIntegrate(cz_solid_61) of U = (-4.38701e-11 -4.84981e-09 7.44133e-10)

surfaceFieldValue massFlowAtFilter_61 write:
    sum(fz_solid_61) of phi = -4.42751e-06

volFieldValue volFieldValue_62 write:
    volIntegrate(cz_solid_62) of U = (-1.19676e-11 -3.98683e-09 6.53997e-10)

surfaceFieldValue massFlowAtFilter_62 write:
    sum(fz_solid_62) of phi = -1.22141e-05

volFieldValue volFieldValue_63 write:
    volIntegrate(cz_solid_63) of U = (3.50187e-12 -3.84582e-09 5.32075e-10)

surfaceFieldValue massFlowAtFilter_63 write:
    sum(fz_solid_63) of phi = -1.94522e-05

volFieldValue volFieldValue_64 write:
    volIntegrate(cz_solid_64) of U = (-8.38971e-11 -3.80641e-09 3.86991e-10)

surfaceFieldValue massFlowAtFilter_64 write:
    sum(fz_solid_64) of phi = -1.52714e-05

volFieldValue volFieldValue_65 write:
    volIntegrate(cz_solid_65) of U = (-2.54105e-10 -3.7769e-09 3.66331e-10)

surfaceFieldValue massFlowAtFilter_65 write:
    sum(fz_solid_65) of phi = -2.35727e-05

volFieldValue volFieldValue_66 write:
    volIntegrate(cz_solid_66) of U = (-4.59364e-10 -3.81591e-09 5.03509e-10)

surfaceFieldValue massFlowAtFilter_66 write:
    sum(fz_solid_66) of phi = -2.23596e-05

volFieldValue volFieldValue_67 write:
    volIntegrate(cz_solid_67) of U = (-5.6253e-10 -3.95448e-09 7.71588e-10)

surfaceFieldValue massFlowAtFilter_67 write:
    sum(fz_solid_67) of phi = -1.71431e-05

volFieldValue volFieldValue_68 write:
    volIntegrate(cz_solid_68) of U = (-5.01759e-10 -4.14962e-09 1.14104e-09)

surfaceFieldValue massFlowAtFilter_68 write:
    sum(fz_solid_68) of phi = -8.80174e-06

volFieldValue volFieldValue_69 write:
    volIntegrate(cz_solid_69) of U = (-1.81937e-10 -4.45134e-09 1.55624e-09)

surfaceFieldValue massFlowAtFilter_69 write:
    sum(fz_solid_69) of phi = 1.39015e-06

volFieldValue volFieldValue_70 write:
    volIntegrate(cz_solid_70) of U = (3.37033e-10 -4.78332e-09 1.90728e-09)

surfaceFieldValue massFlowAtFilter_70 write:
    sum(fz_solid_70) of phi = -3.19842e-06

volFieldValue volFieldValue_71 write:
    volIntegrate(cz_solid_71) of U = (1.10514e-09 -5.60488e-09 2.18111e-09)

surfaceFieldValue massFlowAtFilter_71 write:
    sum(fz_solid_71) of phi = -2.91894e-05

volFieldValue volFieldValue_72 write:
    volIntegrate(cz_solid_72) of U = (2.21086e-09 -7.31718e-09 2.37457e-09)

surfaceFieldValue massFlowAtFilter_72 write:
    sum(fz_solid_72) of phi = -2.88097e-05

volFieldValue volFieldValue_73 write:
    volIntegrate(cz_solid_73) of U = (3.77305e-09 -1.00356e-08 2.50299e-09)

surfaceFieldValue massFlowAtFilter_73 write:
    sum(fz_solid_73) of phi = -1.68439e-05

volFieldValue volFieldValue_74 write:
    volIntegrate(cz_solid_74) of U = (6.01045e-09 -1.48183e-08 2.31754e-09)

surfaceFieldValue massFlowAtFilter_74 write:
    sum(fz_solid_74) of phi = -5.97527e-05

volFieldValue volFieldValue_75 write:
    volIntegrate(cz_solid_75) of U = (8.69088e-09 -2.24255e-08 1.48626e-09)

surfaceFieldValue massFlowAtFilter_75 write:
    sum(fz_solid_75) of phi = -3.31381e-05

volFieldValue volFieldValue_76 write:
    volIntegrate(cz_solid_76) of U = (9.78396e-09 -3.65715e-08 8.72466e-10)

surfaceFieldValue massFlowAtFilter_76 write:
    sum(fz_solid_76) of phi = 0.000121801

volFieldValue volFieldValue_77 write:
    volIntegrate(cz_solid_77) of U = (2.89469e-09 -3.26614e-08 8.34539e-09)

surfaceFieldValue massFlowAtFilter_77 write:
    sum(fz_solid_77) of phi = 8.76942e-05

volFieldValue volFieldValue_78 write:
    volIntegrate(cz_solid_78) of U = (-3.12978e-09 -9.44369e-09 1.33466e-09)

surfaceFieldValue massFlowAtFilter_78 write:
    sum(fz_solid_78) of phi = -5.78963e-05

volFieldValue volFieldValue_79 write:
    volIntegrate(cz_solid_79) of U = (-8.69765e-10 -5.83308e-09 1.21506e-09)

surfaceFieldValue massFlowAtFilter_79 write:
    sum(fz_solid_79) of phi = -1.91228e-05

volFieldValue volFieldValue_80 write:
    volIntegrate(cz_solid_80) of U = (-8.85365e-10 -3.01571e-09 1.78533e-09)

surfaceFieldValue massFlowAtFilter_80 write:
    sum(fz_solid_80) of phi = 2.75293e-05

volFieldValue volFieldValue_81 write:
    volIntegrate(cz_solid_81) of U = (-3.20527e-10 -2.46615e-09 1.30931e-09)

surfaceFieldValue massFlowAtFilter_81 write:
    sum(fz_solid_81) of phi = -3.62497e-06

volFieldValue volFieldValue_82 write:
    volIntegrate(cz_solid_82) of U = (-1.19305e-10 -1.94085e-09 1.02482e-09)

surfaceFieldValue massFlowAtFilter_82 write:
    sum(fz_solid_82) of phi = 2.36012e-07

volFieldValue volFieldValue_83 write:
    volIntegrate(cz_solid_83) of U = (-3.36079e-11 -1.68552e-09 7.23118e-10)

surfaceFieldValue massFlowAtFilter_83 write:
    sum(fz_solid_83) of phi = -1.60637e-05

volFieldValue volFieldValue_84 write:
    volIntegrate(cz_solid_84) of U = (-8.29202e-11 -1.46241e-09 4.70498e-10)

surfaceFieldValue massFlowAtFilter_84 write:
    sum(fz_solid_84) of phi = -1.19379e-05

volFieldValue volFieldValue_85 write:
    volIntegrate(cz_solid_85) of U = (-2.14821e-10 -1.33686e-09 4.41074e-10)

surfaceFieldValue massFlowAtFilter_85 write:
    sum(fz_solid_85) of phi = -1.20305e-05

volFieldValue volFieldValue_86 write:
    volIntegrate(cz_solid_86) of U = (-3.72835e-10 -1.33215e-09 5.7733e-10)

surfaceFieldValue massFlowAtFilter_86 write:
    sum(fz_solid_86) of phi = -2.303e-05

volFieldValue volFieldValue_87 write:
    volIntegrate(cz_solid_87) of U = (-4.24705e-10 -1.43557e-09 8.22279e-10)

surfaceFieldValue massFlowAtFilter_87 write:
    sum(fz_solid_87) of phi = -1.14052e-05

volFieldValue volFieldValue_88 write:
    volIntegrate(cz_solid_88) of U = (-3.14158e-10 -1.57549e-09 1.15323e-09)

surfaceFieldValue massFlowAtFilter_88 write:
    sum(fz_solid_88) of phi = -1.28034e-06

volFieldValue volFieldValue_89 write:
    volIntegrate(cz_solid_89) of U = (3.92713e-11 -1.72934e-09 1.52186e-09)

surfaceFieldValue massFlowAtFilter_89 write:
    sum(fz_solid_89) of phi = 6.09286e-06

volFieldValue volFieldValue_90 write:
    volIntegrate(cz_solid_90) of U = (5.88349e-10 -1.92925e-09 1.85922e-09)

surfaceFieldValue massFlowAtFilter_90 write:
    sum(fz_solid_90) of phi = 2.43263e-06

volFieldValue volFieldValue_91 write:
    volIntegrate(cz_solid_91) of U = (1.43776e-09 -2.30855e-09 2.1459e-09)

surfaceFieldValue massFlowAtFilter_91 write:
    sum(fz_solid_91) of phi = -4.00821e-05

volFieldValue volFieldValue_92 write:
    volIntegrate(cz_solid_92) of U = (2.79677e-09 -3.10877e-09 2.33748e-09)

surfaceFieldValue massFlowAtFilter_92 write:
    sum(fz_solid_92) of phi = 2.65582e-05

volFieldValue volFieldValue_93 write:
    volIntegrate(cz_solid_93) of U = (4.97629e-09 -4.49112e-09 2.36354e-09)

surfaceFieldValue massFlowAtFilter_93 write:
    sum(fz_solid_93) of phi = 0.000163099

volFieldValue volFieldValue_94 write:
    volIntegrate(cz_solid_94) of U = (8.43021e-09 -6.702e-09 1.93601e-09)

surfaceFieldValue massFlowAtFilter_94 write:
    sum(fz_solid_94) of phi = -3.05413e-05

volFieldValue volFieldValue_95 write:
[...]
    volIntegrate(cz_solid_71) of U = (1.07299e-09 -1.52725e-07 -1.76287e-09)

surfaceFieldValue massFlowAtFilter_71 write:
    sum(fz_solid_71) of phi = 3.3819e-05

volFieldValue volFieldValue_72 write:
    volIntegrate(cz_solid_72) of U = (-2.29737e-10 -1.50303e-07 -1.86007e-09)

surfaceFieldValue massFlowAtFilter_72 write:
    sum(fz_solid_72) of phi = 0.000219196

volFieldValue volFieldValue_73 write:
    volIntegrate(cz_solid_73) of U = (-1.31496e-09 -9.10323e-08 -1.87422e-09)

surfaceFieldValue massFlowAtFilter_73 write:
    sum(fz_solid_73) of phi = 8.75094e-05

volFieldValue volFieldValue_74 write:
    volIntegrate(cz_solid_74) of U = (-1.64743e-09 -1.49835e-08 -1.75991e-09)

surfaceFieldValue massFlowAtFilter_74 write:
    sum(fz_solid_74) of phi = 7.51009e-06

volFieldValue volFieldValue_75 write:
    volIntegrate(cz_solid_75) of U = (-1.60131e-09 1.43224e-08 -1.18907e-09)

surfaceFieldValue massFlowAtFilter_75 write:
    sum(fz_solid_75) of phi = -7.17741e-05

volFieldValue volFieldValue_76 write:
    volIntegrate(cz_solid_76) of U = (-1.48534e-09 -1.96432e-08 -6.69018e-10)

surfaceFieldValue massFlowAtFilter_76 write:
    sum(fz_solid_76) of phi = 1.39549e-05

volFieldValue volFieldValue_77 write:
    volIntegrate(cz_solid_77) of U = (-1.44691e-09 1.70883e-08 6.2609e-11)

surfaceFieldValue massFlowAtFilter_77 write:
    sum(fz_solid_77) of phi = -6.56955e-05

volFieldValue volFieldValue_78 write:
    volIntegrate(cz_solid_78) of U = (-1.29246e-09 5.60554e-08 3.86067e-10)

surfaceFieldValue massFlowAtFilter_78 write:
    sum(fz_solid_78) of phi = -1.56363e-05

volFieldValue volFieldValue_79 write:
    volIntegrate(cz_solid_79) of U = (-7.71804e-10 2.18871e-08 4.53102e-10)

surfaceFieldValue massFlowAtFilter_79 write:
    sum(fz_solid_79) of phi = 1.13443e-05

volFieldValue volFieldValue_80 write:
    volIntegrate(cz_solid_80) of U = (-3.50926e-10 -2.29444e-09 1.75183e-10)

surfaceFieldValue massFlowAtFilter_80 write:
    sum(fz_solid_80) of phi = 0.000110573

volFieldValue volFieldValue_81 write:
    volIntegrate(cz_solid_81) of U = (-2.67472e-10 -1.24689e-08 8.13465e-11)

surfaceFieldValue massFlowAtFilter_81 write:
    sum(fz_solid_81) of phi = -4.53768e-05

volFieldValue volFieldValue_82 write:
    volIntegrate(cz_solid_82) of U = (-6.45852e-10 -1.27864e-08 1.86797e-10)

surfaceFieldValue massFlowAtFilter_82 write:
    sum(fz_solid_82) of phi = 0.000226112

volFieldValue volFieldValue_83 write:
    volIntegrate(cz_solid_83) of U = (-1.2887e-09 -1.23596e-08 1.56258e-09)

surfaceFieldValue massFlowAtFilter_83 write:
    sum(fz_solid_83) of phi = -0.0010302

volFieldValue volFieldValue_84 write:
    volIntegrate(cz_solid_84) of U = (-1.71445e-09 -1.56e-08 5.06296e-09)

surfaceFieldValue massFlowAtFilter_84 write:
    sum(fz_solid_84) of phi = -0.000391966

volFieldValue volFieldValue_85 write:
    volIntegrate(cz_solid_85) of U = (1.33043e-09 -2.03909e-08 8.57985e-09)

surfaceFieldValue massFlowAtFilter_85 write:
    sum(fz_solid_85) of phi = -0.000397988

volFieldValue volFieldValue_86 write:
    volIntegrate(cz_solid_86) of U = (3.91638e-09 -2.8806e-08 7.50107e-09)

surfaceFieldValue massFlowAtFilter_86 write:
    sum(fz_solid_86) of phi = -0.00195459

volFieldValue volFieldValue_87 write:
    volIntegrate(cz_solid_87) of U = (6.91388e-09 -3.39162e-08 7.6756e-09)

surfaceFieldValue massFlowAtFilter_87 write:
    sum(fz_solid_87) of phi = -0.000365101

volFieldValue volFieldValue_88 write:
    volIntegrate(cz_solid_88) of U = (1.07182e-08 -3.52484e-08 6.14135e-09)

surfaceFieldValue massFlowAtFilter_88 write:
    sum(fz_solid_88) of phi = 0.00206103

volFieldValue volFieldValue_89 write:
    volIntegrate(cz_solid_89) of U = (1.04834e-08 -4.09349e-08 1.26554e-09)

surfaceFieldValue massFlowAtFilter_89 write:
    sum(fz_solid_89) of phi = 0.000374062

volFieldValue volFieldValue_90 write:
    volIntegrate(cz_solid_90) of U = (6.72852e-09 -4.26847e-08 -4.68127e-09)

surfaceFieldValue massFlowAtFilter_90 write:
    sum(fz_solid_90) of phi = -0.000105941

volFieldValue volFieldValue_91 write:
    volIntegrate(cz_solid_91) of U = (2.2831e-09 -6.20037e-08 -1.62341e-09)

surfaceFieldValue massFlowAtFilter_91 write:
    sum(fz_solid_91) of phi = -5.93708e-05

volFieldValue volFieldValue_92 write:
    volIntegrate(cz_solid_92) of U = (1.95322e-09 -8.02557e-08 -3.20736e-09)

surfaceFieldValue massFlowAtFilter_92 write:
    sum(fz_solid_92) of phi = 0.000800392

volFieldValue volFieldValue_93 write:
    volIntegrate(cz_solid_93) of U = (7.6617e-10 -1.02918e-07 -5.00386e-09)

surfaceFieldValue massFlowAtFilter_93 write:
    sum(fz_solid_93) of phi = 0.000293357

volFieldValue volFieldValue_94 write:
    volIntegrate(cz_solid_94) of U = (-3.11246e-09 -8.43774e-08 -5.23399e-09)

surfaceFieldValue massFlowAtFilter_94 write:
    sum(fz_solid_94) of phi = -0.000576016

volFieldValue volFieldValue_95 write:
    volIntegrate(cz_solid_95) of U = (-4.0967e-09 -3.08288e-08 -2.04628e-09)

surfaceFieldValue massFlowAtFilter_95 write:
    sum(fz_solid_95) of phi = 0.000242694

volFieldValue volFieldValue_96 write:
    volIntegrate(cz_solid_96) of U = (-2.10129e-09 2.47454e-08 -1.31322e-09)

surfaceFieldValue massFlowAtFilter_96 write:
    sum(fz_solid_96) of phi = 0.000123581

volFieldValue volFieldValue_97 write:
    volIntegrate(cz_solid_97) of U = (-1.24724e-09 5.44015e-08 2.11536e-11)

surfaceFieldValue massFlowAtFilter_97 write:
    sum(fz_solid_97) of phi = -4.08306e-05

volFieldValue volFieldValue_98 write:
    volIntegrate(cz_solid_98) of U = (-1.20739e-09 4.12469e-08 1.85799e-10)

surfaceFieldValue massFlowAtFilter_98 write:
    sum(fz_solid_98) of phi = 2.35592e-05

volFieldValue volFieldValue_99 write:
    volIntegrate(cz_solid_99) of U = (-6.76383e-10 1.91741e-08 2.31231e-10)

surfaceFieldValue massFlowAtFilter_99 write:
    sum(fz_solid_99) of phi = 8.25671e-05

Time = 641

DILUPBiCG:  Solving for Ux, Initial residual = 2.08041e-07, Final residual = 2.08041e-07, No Iterations 0
DILUPBiCG:  Solving for Uy, Initial residual = 1.35495e-07, Final residual = 1.35495e-07, No Iterations 0
DILUPBiCG:  Solving for Uz, Initial residual = 2.75343e-07, Final residual = 2.75343e-07, No Iterations 0
DICPCG:  Solving for p, Initial residual = 0.00103679, Final residual = 0.000102729, No Iterations 22
DICPCG:  Solving for p, Initial residual = 0.000246829, Final residual = 2.44567e-05, No Iterations 66
DICPCG:  Solving for p, Initial residual = 5.80788e-05, Final residual = 9.68857e-06, No Iterations 39
time step continuity errors : sum local = 7.30554e-05, global = -1.21704e-05, cumulative = -0.000588391
DILUPBiCG:  Solving for epsilon, Initial residual = 0.000748414, Final residual = 2.59866e-06, No Iterations 2
DILUPBiCG:  Solving for k, Initial residual = 0.000988667, Final residual = 5.49239e-08, No Iterations 4
ExecutionTime = 1287.55 s  ClockTime = 1340 s

Time = 642

DILUPBiCG:  Solving for Ux, Initial residual = 2.08281e-07, Final residual = 2.08281e-07, No Iterations 0
DILUPBiCG:  Solving for Uy, Initial residual = 1.35481e-07, Final residual = 1.35481e-07, No Iterations 0
DILUPBiCG:  Solving for Uz, Initial residual = 2.75154e-07, Final residual = 2.75154e-07, No Iterations 0
DICPCG:  Solving for p, Initial residual = 0.00103376, Final residual = 9.6718e-05, No Iterations 23
DICPCG:  Solving for p, Initial residual = 0.000243928, Final residual = 2.41603e-05, No Iterations 67
DICPCG:  Solving for p, Initial residual = 5.7497e-05, Final residual = 9.99649e-06, No Iterations 40
time step continuity errors : sum local = 7.53989e-05, global = -1.44495e-05, cumulative = -0.00060284
DILUPBiCG:  Solving for epsilon, Initial residual = 0.000748108, Final residual = 2.53301e-06, No Iterations 2
DILUPBiCG:  Solving for k, Initial residual = 0.00098665, Final residual = 5.50164e-08, No Iterations 4
ExecutionTime = 1289.39 s  ClockTime = 1342 s

Time = 643

DILUPBiCG:  Solving for Ux, Initial residual = 2.08528e-07, Final residual = 2.08528e-07, No Iterations 0
DILUPBiCG:  Solving for Uy, Initial residual = 1.35471e-07, Final residual = 1.35471e-07, No Iterations 0
DILUPBiCG:  Solving for Uz, Initial residual = 2.74978e-07, Final residual = 2.74978e-07, No Iterations 0
DICPCG:  Solving for p, Initial residual = 0.00103025, Final residual = 9.71196e-05, No Iterations 23
DICPCG:  Solving for p, Initial residual = 0.000243408, Final residual = 2.41267e-05, No Iterations 82
DICPCG:  Solving for p, Initial residual = 5.76158e-05, Final residual = 9.93808e-06, No Iterations 21
time step continuity errors : sum local = 7.49812e-05, global = -1.77467e-05, cumulative = -0.000620587
DILUPBiCG:  Solving for epsilon, Initial residual = 0.000747762, Final residual = 2.50392e-06, No Iterations 2
DILUPBiCG:  Solving for k, Initial residual = 0.00098464, Final residual = 5.50616e-08, No Iterations 4
ExecutionTime = 1291.2 s  ClockTime = 1344 s

Time = 644

DILUPBiCG:  Solving for Ux, Initial residual = 2.08788e-07, Final residual = 2.08788e-07, No Iterations 0
DILUPBiCG:  Solving for Uy, Initial residual = 1.35462e-07, Final residual = 1.35462e-07, No Iterations 0
DILUPBiCG:  Solving for Uz, Initial residual = 2.74818e-07, Final residual = 2.74818e-07, No Iterations 0
DICPCG:  Solving for p, Initial residual = 0.00102304, Final residual = 9.70745e-05, No Iterations 23
DICPCG:  Solving for p, Initial residual = 0.000241988, Final residual = 2.41583e-05, No Iterations 67
DICPCG:  Solving for p, Initial residual = 5.71185e-05, Final residual = 9.75904e-06, No Iterations 267
time step continuity errors : sum local = 7.36543e-05, global = 2.58359e-07, cumulative = -0.000620329
DILUPBiCG:  Solving for epsilon, Initial residual = 0.000747496, Final residual = 2.51656e-06, No Iterations 2
DILUPBiCG:  Solving for k, Initial residual = 0.000982698, Final residual = 5.50362e-08, No Iterations 4
ExecutionTime = 1294.7 s  ClockTime = 1347 s

Time = 645

DILUPBiCG:  Solving for Ux, Initial residual = 2.09022e-07, Final residual = 2.09022e-07, No Iterations 0
DILUPBiCG:  Solving for Uy, Initial residual = 1.35456e-07, Final residual = 1.35456e-07, No Iterations 0
DILUPBiCG:  Solving for Uz, Initial residual = 2.74645e-07, Final residual = 2.74645e-07, No Iterations 0
DICPCG:  Solving for p, Initial residual = 0.00101921, Final residual = 9.76065e-05, No Iterations 23
DICPCG:  Solving for p, Initial residual = 0.000241513, Final residual = 2.4015e-05, No Iterations 60
DICPCG:  Solving for p, Initial residual = 5.74436e-05, Final residual = 9.87885e-06, No Iterations 41
time step continuity errors : sum local = 7.46969e-05, global = -1.26332e-05, cumulative = -0.000632962
DILUPBiCG:  Solving for epsilon, Initial residual = 0.000747125, Final residual = 2.57138e-06, No Iterations 2
DILUPBiCG:  Solving for k, Initial residual = 0.000980756, Final residual = 5.49945e-08, No Iterations 4
ExecutionTime = 1296.49 s  ClockTime = 1349 s

Time = 646

DILUPBiCG:  Solving for Ux, Initial residual = 2.09303e-07, Final residual = 2.09303e-07, No Iterations 0
DILUPBiCG:  Solving for Uy, Initial residual = 1.35444e-07, Final residual = 1.35444e-07, No Iterations 0
DILUPBiCG:  Solving for Uz, Initial residual = 2.74504e-07, Final residual = 2.74504e-07, No Iterations 0
DICPCG:  Solving for p, Initial residual = 0.0010152, Final residual = 9.88223e-05, No Iterations 23
DICPCG:  Solving for p, Initial residual = 0.000242492, Final residual = 2.42466e-05, No Iterations 61
DICPCG:  Solving for p, Initial residual = 5.79088e-05, Final residual = 9.48212e-06, No Iterations 41
time step continuity errors : sum local = 7.17216e-05, global = -1.13168e-05, cumulative = -0.000644279
DILUPBiCG:  Solving for epsilon, Initial residual = 0.000746768, Final residual = 2.70668e-06, No Iterations 2
DILUPBiCG:  Solving for k, Initial residual = 0.00097884, Final residual = 5.48964e-08, No Iterations 4
ExecutionTime = 1298.3 s  ClockTime = 1351 s

Time = 647

DILUPBiCG:  Solving for Ux, Initial residual = 2.09606e-07, Final residual = 2.09606e-07, No Iterations 0
DILUPBiCG:  Solving for Uy, Initial residual = 1.35436e-07, Final residual = 1.35436e-07, No Iterations 0
DILUPBiCG:  Solving for Uz, Initial residual = 2.74371e-07, Final residual = 2.74371e-07, No Iterations 0
DICPCG:  Solving for p, Initial residual = 0.00101269, Final residual = 0.0001002, No Iterations 23
DICPCG:  Solving for p, Initial residual = 0.000242329, Final residual = 2.40061e-05, No Iterations 65
DICPCG:  Solving for p, Initial residual = 5.78518e-05, Final residual = 9.85505e-06, No Iterations 37
time step continuity errors : sum local = 7.45674e-05, global = -1.08088e-05, cumulative = -0.000655087
DILUPBiCG:  Solving for epsilon, Initial residual = 0.000746306, Final residual = 2.89487e-06, No Iterations 2
DILUPBiCG:  Solving for k, Initial residual = 0.000976939, Final residual = 5.47507e-08, No Iterations 4
ExecutionTime = 1300.1 s  ClockTime = 1352 s

Time = 648

DILUPBiCG:  Solving for Ux, Initial residual = 2.09919e-07, Final residual = 2.09919e-07, No Iterations 0
DILUPBiCG:  Solving for Uy, Initial residual = 1.3543e-07, Final residual = 1.3543e-07, No Iterations 0
DILUPBiCG:  Solving for Uz, Initial residual = 2.74254e-07, Final residual = 2.74254e-07, No Iterations 0
DICPCG:  Solving for p, Initial residual = 0.00101083, Final residual = 0.000100251, No Iterations 23
DICPCG:  Solving for p, Initial residual = 0.000242126, Final residual = 2.40977e-05, No Iterations 66
DICPCG:  Solving for p, Initial residual = 5.74951e-05, Final residual = 9.7193e-06, No Iterations 37
time step continuity errors : sum local = 7.35659e-05, global = -1.11859e-05, cumulative = -0.000666273
DILUPBiCG:  Solving for epsilon, Initial residual = 0.000745829, Final residual = 3.16067e-06, No Iterations 2
DILUPBiCG:  Solving for k, Initial residual = 0.000975056, Final residual = 5.45581e-08, No Iterations 4
ExecutionTime = 1301.91 s  ClockTime = 1354 s

Time = 649

DILUPBiCG:  Solving for Ux, Initial residual = 2.10248e-07, Final residual = 2.10248e-07, No Iterations 0
DILUPBiCG:  Solving for Uy, Initial residual = 1.35429e-07, Final residual = 1.35429e-07, No Iterations 0
DILUPBiCG:  Solving for Uz, Initial residual = 2.74159e-07, Final residual = 2.74159e-07, No Iterations 0
DICPCG:  Solving for p, Initial residual = 0.00101356, Final residual = 0.000100107, No Iterations 23
DICPCG:  Solving for p, Initial residual = 0.00024226, Final residual = 2.41264e-05, No Iterations 67
DICPCG:  Solving for p, Initial residual = 5.76498e-05, Final residual = 9.59664e-06, No Iterations 37
time step continuity errors : sum local = 7.26638e-05, global = -1.24687e-05, cumulative = -0.000678742
DILUPBiCG:  Solving for epsilon, Initial residual = 0.000745307, Final residual = 3.49264e-06, No Iterations 2
DILUPBiCG:  Solving for k, Initial residual = 0.000973183, Final residual = 5.43155e-08, No Iterations 4
ExecutionTime = 1303.72 s  ClockTime = 1356 s

Time = 650

DILUPBiCG:  Solving for Ux, Initial residual = 2.10576e-07, Final residual = 2.10576e-07, No Iterations 0
DILUPBiCG:  Solving for Uy, Initial residual = 1.35431e-07, Final residual = 1.35431e-07, No Iterations 0
DILUPBiCG:  Solving for Uz, Initial residual = 2.74065e-07, Final residual = 2.74065e-07, No Iterations 0
DICPCG:  Solving for p, Initial residual = 0.00100909, Final residual = 9.96043e-05, No Iterations 23
DICPCG:  Solving for p, Initial residual = 0.000241274, Final residual = 2.38987e-05, No Iterations 67
DICPCG:  Solving for p, Initial residual = 5.72359e-05, Final residual = 9.75294e-06, No Iterations 37
time step continuity errors : sum local = 7.38748e-05, global = -1.46195e-05, cumulative = -0.000693361
DILUPBiCG:  Solving for epsilon, Initial residual = 0.000744749, Final residual = 3.94107e-06, No Iterations 2
DILUPBiCG:  Solving for k, Initial residual = 0.000971325, Final residual = 5.40356e-08, No Iterations 4
ExecutionTime = 1305.53 s  ClockTime = 1358 s

Time = 651

DILUPBiCG:  Solving for Ux, Initial residual = 2.10908e-07, Final residual = 2.10908e-07, No Iterations 0
DILUPBiCG:  Solving for Uy, Initial residual = 1.35436e-07, Final residual = 1.35436e-07, No Iterations 0
DILUPBiCG:  Solving for Uz, Initial residual = 2.73971e-07, Final residual = 2.73971e-07, No Iterations 0
DICPCG:  Solving for p, Initial residual = 0.00100618, Final residual = 9.95278e-05, No Iterations 23
DICPCG:  Solving for p, Initial residual = 0.00023998, Final residual = 2.39163e-05, No Iterations 67
DICPCG:  Solving for p, Initial residual = 5.69034e-05, Final residual = 9.53946e-06, No Iterations 267
time step continuity errors : sum local = 7.22861e-05, global = 1.82124e-07, cumulative = -0.000693179
DILUPBiCG:  Solving for epsilon, Initial residual = 0.000744235, Final residual = 4.6188e-06, No Iterations 2
DILUPBiCG:  Solving for k, Initial residual = 0.000969516, Final residual = 5.37071e-08, No Iterations 4
ExecutionTime = 1309 s  ClockTime = 1361 s

Time = 652

DILUPBiCG:  Solving for Ux, Initial residual = 2.11222e-07, Final residual = 2.11222e-07, No Iterations 0
DILUPBiCG:  Solving for Uy, Initial residual = 1.35449e-07, Final residual = 1.35449e-07, No Iterations 0
DILUPBiCG:  Solving for Uz, Initial residual = 2.7389e-07, Final residual = 2.7389e-07, No Iterations 0
DICPCG:  Solving for p, Initial residual = 0.00100366, Final residual = 0.000100161, No Iterations 23
DICPCG:  Solving for p, Initial residual = 0.000240059, Final residual = 2.38907e-05, No Iterations 64
DICPCG:  Solving for p, Initial residual = 5.70139e-05, Final residual = 9.79389e-06, No Iterations 36
time step continuity errors : sum local = 7.43379e-05, global = -9.98922e-06, cumulative = -0.000703169
DILUPBiCG:  Solving for epsilon, Initial residual = 0.000743555, Final residual = 5.42506e-06, No Iterations 2
DILUPBiCG:  Solving for k, Initial residual = 0.000967701, Final residual = 5.33792e-08, No Iterations 4
ExecutionTime = 1310.78 s  ClockTime = 1363 s

Time = 653

DILUPBiCG:  Solving for Ux, Initial residual = 2.11579e-07, Final residual = 2.11579e-07, No Iterations 0
DILUPBiCG:  Solving for Uy, Initial residual = 1.35453e-07, Final residual = 1.35453e-07, No Iterations 0
DILUPBiCG:  Solving for Uz, Initial residual = 2.73815e-07, Final residual = 2.73815e-07, No Iterations 0
DICPCG:  Solving for p, Initial residual = 0.00100027, Final residual = 9.63171e-05, No Iterations 24
DICPCG:  Solving for p, Initial residual = 0.00023484, Final residual = 2.34438e-05, No Iterations 62
DICPCG:  Solving for p, Initial residual = 5.58692e-05, Final residual = 9.94664e-06, No Iterations 35
time step continuity errors : sum local = 7.55283e-05, global = -8.3922e-06, cumulative = -0.000711561
DILUPBiCG:  Solving for epsilon, Initial residual = 0.000742848, Final residual = 7.12164e-06, No Iterations 2
DILUPBiCG:  Solving for k, Initial residual = 0.000965883, Final residual = 5.30177e-08, No Iterations 4
ExecutionTime = 1312.57 s  ClockTime = 1365 s

Time = 654

DILUPBiCG:  Solving for Ux, Initial residual = 2.11958e-07, Final residual = 2.11958e-07, No Iterations 0
DILUPBiCG:  Solving for Uy, Initial residual = 1.3546e-07, Final residual = 1.3546e-07, No Iterations 0
DILUPBiCG:  Solving for Uz, Initial residual = 2.73765e-07, Final residual = 2.73765e-07, No Iterations 0
DICPCG:  Solving for p, Initial residual = 0.000996349, Final residual = 9.69697e-05, No Iterations 24
DICPCG:  Solving for p, Initial residual = 0.000234495, Final residual = 2.2078e-05, No Iterations 63
DICPCG:  Solving for p, Initial residual = 5.46297e-05, Final residual = 9.66313e-06, No Iterations 34
time step continuity errors : sum local = 7.34048e-05, global = -8.1065e-06, cumulative = -0.000719667
DILUPBiCG:  Solving for epsilon, Initial residual = 0.000741963, Final residual = 1.46937e-06, No Iterations 3
DILUPBiCG:  Solving for k, Initial residual = 0.000964196, Final residual = 5.267e-08, No Iterations 4
ExecutionTime = 1314.36 s  ClockTime = 1367 s


SIMPLE solution converged in 654 iterations

End

Finalising parallel run
