/*---------------------------------------------------------------------------*\
  =========                 |
  \\      /  F ield         | OpenFOAM: The Open Source CFD Toolbox
   \\    /   O peration     | Website:  https://openfoam.org
    \\  /    A nd           | Version:  6
     \\/     M anipulation  |
\*---------------------------------------------------------------------------*/
Build  : 6
Exec   : bouSimpleFoam -parallel
Date   : Aug 06 2020
Time   : 22:02:54
Host   : "emps-ugmat1"
PID    : 21376
I/O    : uncollated
Case   : /home/links/jjw230/Optimisation_second_draft/Case2
nProcs : 4
Slaves : 
3
(
"emps-ugmat1.21377"
"emps-ugmat1.21378"
"emps-ugmat1.21379"
)

Pstream initialized with:
    floatTransfer      : 0
    nProcsSimpleSum    : 0
    commsType          : nonBlocking
    polling iterations : 0
sigFpe : Enabling floating point exception trapping (FOAM_SIGFPE).
fileModificationChecking : Monitoring run-time modified files using timeStampMaster (fileModificationSkew 10)
allowSystemOperations : Allowing user-supplied system call operations

// * * * * * * * * * * * * * * * * * * * * * * * * * * * * * * * * * * * * * //
Create time

Create mesh for time = 0


SIMPLE: Convergence criteria found
        p: tolerance 0.001
        U: tolerance 0.001
        "(k|epsilon)": tolerance 0.001
        theta: tolerance 0.001

Reading field p

Reading field U

Reading field theta

Reading/calculating face flux field phi

Selecting incompressible transport model Newtonian
Selecting turbulence model type RAS
Selecting RAS turbulence model RNGkEpsilon
RAS
{
    RASModel        RNGkEpsilon;
    turbulence      on;
    printCoeffs     on;
    Cmu             0.0845;
    C1              1.42;
    C2              1.68;
    C3              0;
    sigmak          0.71942;
    sigmaEps        0.71942;
    eta0            4.38;
    beta            0.012;
}

No MRF models present

Creating finite volume options from "system/fvOptions"

Selecting finite volume options model type explicitPorositySource
    Source: source0
    - selecting cells using cellZone cz_solid_0
    - selected 2072 cell(s) with volume 0.00214207
Porosity region source0:
    selecting model: DarcyForchheimer
    creating porous zone: cz_solid_0
Selecting finite volume options model type explicitPorositySource
    Source: source1
    - selecting cells using cellZone cz_solid_1
    - selected 2082 cell(s) with volume 0.00214458
Porosity region source1:
    selecting model: DarcyForchheimer
    creating porous zone: cz_solid_1
Selecting finite volume options model type explicitPorositySource
    Source: source2
    - selecting cells using cellZone cz_solid_2
    - selected 2030 cell(s) with volume 0.00214181
Porosity region source2:
    selecting model: DarcyForchheimer
    creating porous zone: cz_solid_2
Selecting finite volume options model type explicitPorositySource
    Source: source3
    - selecting cells using cellZone cz_solid_3
    - selected 1925 cell(s) with volume 0.00214369
Porosity region source3:
    selecting model: DarcyForchheimer
    creating porous zone: cz_solid_3
Selecting finite volume options model type explicitPorositySource
    Source: source4
    - selecting cells using cellZone cz_solid_4
    - selected 1344 cell(s) with volume 0.00213933
Porosity region source4:
    selecting model: DarcyForchheimer
    creating porous zone: cz_solid_4
Selecting finite volume options model type explicitPorositySource
    Source: source5
    - selecting cells using cellZone cz_solid_5
    - selected 2044 cell(s) with volume 0.00214211
Porosity region source5:
    selecting model: DarcyForchheimer
    creating porous zone: cz_solid_5
Selecting finite volume options model type explicitPorositySource
    Source: source6
    - selecting cells using cellZone cz_solid_6
    - selected 1960 cell(s) with volume 0.00214343
Porosity region source6:
    selecting model: DarcyForchheimer
    creating porous zone: cz_solid_6
Selecting finite volume options model type explicitPorositySource
    Source: source7
    - selecting cells using cellZone cz_solid_7
    - selected 2027 cell(s) with volume 0.00214463
Porosity region source7:
    selecting model: DarcyForchheimer
    creating porous zone: cz_solid_7
Selecting finite volume options model type explicitPorositySource
    Source: source8
    - selecting cells using cellZone cz_solid_8
    - selected 1456 cell(s) with volume 0.0021393
Porosity region source8:
    selecting model: DarcyForchheimer
    creating porous zone: cz_solid_8
Selecting finite volume options model type explicitPorositySource
    Source: source9
    - selecting cells using cellZone cz_solid_9
    - selected 2016 cell(s) with volume 0.0021441
Porosity region source9:
    selecting model: DarcyForchheimer
    creating porous zone: cz_solid_9
Selecting finite volume options model type explicitPorositySource
    Source: source10
    - selecting cells using cellZone cz_solid_10
    - selected 2017 cell(s) with volume 0.00214463
Porosity region source10:
    selecting model: DarcyForchheimer
    creating porous zone: cz_solid_10
Selecting finite volume options model type explicitPorositySource
    Source: source11
    - selecting cells using cellZone cz_solid_11
    - selected 2072 cell(s) with volume 0.00214125
Porosity region source11:
    selecting model: DarcyForchheimer
    creating porous zone: cz_solid_11
Selecting finite volume options model type explicitPorositySource
    Source: source12
    - selecting cells using cellZone cz_solid_12
    - selected 2149 cell(s) with volume 0.00214455
Porosity region source12:
    selecting model: DarcyForchheimer
    creating porous zone: cz_solid_12
Selecting finite volume options model type explicitPorositySource
    Source: source13
    - selecting cells using cellZone cz_solid_13
    - selected 1797 cell(s) with volume 0.00214245
Porosity region source13:
    selecting model: DarcyForchheimer
    creating porous zone: cz_solid_13
Selecting finite volume options model type explicitPorositySource
    Source: source14
    - selecting cells using cellZone cz_solid_14
    - selected 1915 cell(s) with volume 0.00214554
Porosity region source14:
    selecting model: DarcyForchheimer
    creating porous zone: cz_solid_14
Selecting finite volume options model type explicitPorositySource
    Source: source15
    - selecting cells using cellZone cz_solid_15
    - selected 1938 cell(s) with volume 0.00214272
Porosity region source15:
    selecting model: DarcyForchheimer
    creating porous zone: cz_solid_15
Selecting finite volume options model type explicitPorositySource
    Source: source16
    - selecting cells using cellZone cz_solid_16
    - selected 1789 cell(s) with volume 0.00214207
Porosity region source16:
    selecting model: DarcyForchheimer
    creating porous zone: cz_solid_16
Selecting finite volume options model type explicitPorositySource
    Source: source17
    - selecting cells using cellZone cz_solid_17
    - selected 1906 cell(s) with volume 0.00213806
Porosity region source17:
    selecting model: DarcyForchheimer
    creating porous zone: cz_solid_17
Selecting finite volume options model type explicitPorositySource
    Source: source18
    - selecting cells using cellZone cz_solid_18
    - selected 1915 cell(s) with volume 0.00214535
Porosity region source18:
    selecting model: DarcyForchheimer
    creating porous zone: cz_solid_18
Selecting finite volume options model type explicitPorositySource
    Source: source19
    - selecting cells using cellZone cz_solid_19
    - selected 1918 cell(s) with volume 0.00214446
Porosity region source19:
    selecting model: DarcyForchheimer
    creating porous zone: cz_solid_19
Selecting finite volume options model type explicitPorositySource
    Source: source20
    - selecting cells using cellZone cz_solid_20
    - selected 2192 cell(s) with volume 0.00214225
Porosity region source20:
    selecting model: DarcyForchheimer
    creating porous zone: cz_solid_20
Selecting finite volume options model type explicitPorositySource
    Source: source21
    - selecting cells using cellZone cz_solid_21
    - selected 2192 cell(s) with volume 0.00214398
Porosity region source21:
    selecting model: DarcyForchheimer
    creating porous zone: cz_solid_21
Selecting finite volume options model type explicitPorositySource
    Source: source22
    - selecting cells using cellZone cz_solid_22
    - selected 2150 cell(s) with volume 0.00214203
Porosity region source22:
    selecting model: DarcyForchheimer
    creating porous zone: cz_solid_22
Selecting finite volume options model type explicitPorositySource
    Source: source23
    - selecting cells using cellZone cz_solid_23
    - selected 2044 cell(s) with volume 0.00214399
Porosity region source23:
    selecting model: DarcyForchheimer
    creating porous zone: cz_solid_23
Selecting finite volume options model type explicitPorositySource
    Source: source24
    - selecting cells using cellZone cz_solid_24
    - selected 1436 cell(s) with volume 0.00213909
Porosity region source24:
    selecting model: DarcyForchheimer
    creating porous zone: cz_solid_24
Selecting finite volume options model type explicitPorositySource
    Source: source25
    - selecting cells using cellZone cz_solid_25
    - selected 2136 cell(s) with volume 0.00214237
Porosity region source25:
    selecting model: DarcyForchheimer
    creating porous zone: cz_solid_25
Selecting finite volume options model type explicitPorositySource
    Source: source26
    - selecting cells using cellZone cz_solid_26
    - selected 2080 cell(s) with volume 0.00214363
Porosity region source26:
    selecting model: DarcyForchheimer
    creating porous zone: cz_solid_26
Selecting finite volume options model type explicitPorositySource
    Source: source27
    - selecting cells using cellZone cz_solid_27
    - selected 2122 cell(s) with volume 0.00214401
Porosity region source27:
    selecting model: DarcyForchheimer
    creating porous zone: cz_solid_27
Selecting finite volume options model type explicitPorositySource
    Source: source28
    - selecting cells using cellZone cz_solid_28
    - selected 1548 cell(s) with volume 0.00213944
Porosity region source28:
    selecting model: DarcyForchheimer
    creating porous zone: cz_solid_28
Selecting finite volume options model type explicitPorositySource
    Source: source29
    - selecting cells using cellZone cz_solid_29
    - selected 2080 cell(s) with volume 0.00214374
Porosity region source29:
    selecting model: DarcyForchheimer
    creating porous zone: cz_solid_29
Selecting finite volume options model type explicitPorositySource
    Source: source30
    - selecting cells using cellZone cz_solid_30
    - selected 2114 cell(s) with volume 0.00214491
Porosity region source30:
    selecting model: DarcyForchheimer
    creating porous zone: cz_solid_30
Selecting finite volume options model type explicitPorositySource
    Source: source31
    - selecting cells using cellZone cz_solid_31
    - selected 2192 cell(s) with volume 0.0021414
Porosity region source31:
    selecting model: DarcyForchheimer
    creating porous zone: cz_solid_31
Selecting finite volume options model type explicitPorositySource
    Source: source32
    - selecting cells using cellZone cz_solid_32
    - selected 2268 cell(s) with volume 0.00214481
Porosity region source32:
    selecting model: DarcyForchheimer
    creating porous zone: cz_solid_32
Selecting finite volume options model type explicitPorositySource
    Source: source33
    - selecting cells using cellZone cz_solid_33
    - selected 1858 cell(s) with volume 0.00214269
Porosity region source33:
    selecting model: DarcyForchheimer
    creating porous zone: cz_solid_33
Selecting finite volume options model type explicitPorositySource
    Source: source34
    - selecting cells using cellZone cz_solid_34
    - selected 1994 cell(s) with volume 0.00214505
Porosity region source34:
    selecting model: DarcyForchheimer
    creating porous zone: cz_solid_34
Selecting finite volume options model type explicitPorositySource
    Source: source35
    - selecting cells using cellZone cz_solid_35
    - selected 2080 cell(s) with volume 0.0021433
Porosity region source35:
    selecting model: DarcyForchheimer
    creating porous zone: cz_solid_35
Selecting finite volume options model type explicitPorositySource
    Source: source36
    - selecting cells using cellZone cz_solid_36
    - selected 1858 cell(s) with volume 0.00214231
Porosity region source36:
    selecting model: DarcyForchheimer
    creating porous zone: cz_solid_36
Selecting finite volume options model type explicitPorositySource
    Source: source37
    - selecting cells using cellZone cz_solid_37
    - selected 2022 cell(s) with volume 0.00213939
Porosity region source37:
    selecting model: DarcyForchheimer
    creating porous zone: cz_solid_37
Selecting finite volume options model type explicitPorositySource
    Source: source38
    - selecting cells using cellZone cz_solid_38
    - selected 1978 cell(s) with volume 0.00214508
Porosity region source38:
    selecting model: DarcyForchheimer
    creating porous zone: cz_solid_38
Selecting finite volume options model type explicitPorositySource
    Source: source39
    - selecting cells using cellZone cz_solid_39
    - selected 2010 cell(s) with volume 0.00214496
Porosity region source39:
    selecting model: DarcyForchheimer
    creating porous zone: cz_solid_39
Selecting finite volume options model type explicitPorositySource
    Source: source40
    - selecting cells using cellZone cz_solid_40
    - selected 2072 cell(s) with volume 0.00214202
Porosity region source40:
    selecting model: DarcyForchheimer
    creating porous zone: cz_solid_40
Selecting finite volume options model type explicitPorositySource
    Source: source41
    - selecting cells using cellZone cz_solid_41
    - selected 2100 cell(s) with volume 0.00214379
Porosity region source41:
    selecting model: DarcyForchheimer
    creating porous zone: cz_solid_41
Selecting finite volume options model type explicitPorositySource
    Source: source42
    - selecting cells using cellZone cz_solid_42
    - selected 2030 cell(s) with volume 0.00214189
Porosity region source42:
    selecting model: DarcyForchheimer
    creating porous zone: cz_solid_42
Selecting finite volume options model type explicitPorositySource
    Source: source43
    - selecting cells using cellZone cz_solid_43
    - selected 1925 cell(s) with volume 0.00214366
Porosity region source43:
    selecting model: DarcyForchheimer
    creating porous zone: cz_solid_43
Selecting finite volume options model type explicitPorositySource
    Source: source44
    - selecting cells using cellZone cz_solid_44
    - selected 1344 cell(s) with volume 0.00213906
Porosity region source44:
    selecting model: DarcyForchheimer
    creating porous zone: cz_solid_44
Selecting finite volume options model type explicitPorositySource
    Source: source45
    - selecting cells using cellZone cz_solid_45
    - selected 2044 cell(s) with volume 0.00214216
Porosity region source45:
    selecting model: DarcyForchheimer
    creating porous zone: cz_solid_45
Selecting finite volume options model type explicitPorositySource
    Source: source46
    - selecting cells using cellZone cz_solid_46
    - selected 1960 cell(s) with volume 0.00214367
Porosity region source46:
    selecting model: DarcyForchheimer
    creating porous zone: cz_solid_46
Selecting finite volume options model type explicitPorositySource
    Source: source47
    - selecting cells using cellZone cz_solid_47
    - selected 2030 cell(s) with volume 0.00214379
Porosity region source47:
    selecting model: DarcyForchheimer
    creating porous zone: cz_solid_47
Selecting finite volume options model type explicitPorositySource
    Source: source48
    - selecting cells using cellZone cz_solid_48
    - selected 1456 cell(s) with volume 0.00213932
Porosity region source48:
    selecting model: DarcyForchheimer
    creating porous zone: cz_solid_48
Selecting finite volume options model type explicitPorositySource
    Source: source49
    - selecting cells using cellZone cz_solid_49
    - selected 1960 cell(s) with volume 0.00214346
Porosity region source49:
    selecting model: DarcyForchheimer
    creating porous zone: cz_solid_49
Selecting finite volume options model type explicitPorositySource
    Source: source50
    - selecting cells using cellZone cz_solid_50
    - selected 1993 cell(s) with volume 0.00214492
Porosity region source50:
    selecting model: DarcyForchheimer
    creating porous zone: cz_solid_50
Selecting finite volume options model type explicitPorositySource
    Source: source51
    - selecting cells using cellZone cz_solid_51
    - selected 2072 cell(s) with volume 0.00214126
Porosity region source51:
    selecting model: DarcyForchheimer
    creating porous zone: cz_solid_51
Selecting finite volume options model type explicitPorositySource
    Source: source52
    - selecting cells using cellZone cz_solid_52
    - selected 2149 cell(s) with volume 0.00214462
Porosity region source52:
    selecting model: DarcyForchheimer
    creating porous zone: cz_solid_52
Selecting finite volume options model type explicitPorositySource
    Source: source53
    - selecting cells using cellZone cz_solid_53
    - selected 1801 cell(s) with volume 0.00214251
Porosity region source53:
    selecting model: DarcyForchheimer
    creating porous zone: cz_solid_53
Selecting finite volume options model type explicitPorositySource
    Source: source54
    - selecting cells using cellZone cz_solid_54
    - selected 1894 cell(s) with volume 0.00214487
Porosity region source54:
    selecting model: DarcyForchheimer
    creating porous zone: cz_solid_54
Selecting finite volume options model type explicitPorositySource
    Source: source55
    - selecting cells using cellZone cz_solid_55
    - selected 1938 cell(s) with volume 0.00214266
Porosity region source55:
    selecting model: DarcyForchheimer
    creating porous zone: cz_solid_55
Selecting finite volume options model type explicitPorositySource
    Source: source56
    - selecting cells using cellZone cz_solid_56
    - selected 1793 cell(s) with volume 0.0021423
Porosity region source56:
    selecting model: DarcyForchheimer
    creating porous zone: cz_solid_56
Selecting finite volume options model type explicitPorositySource
    Source: source57
    - selecting cells using cellZone cz_solid_57
    - selected 1896 cell(s) with volume 0.00213815
Porosity region source57:
    selecting model: DarcyForchheimer
    creating porous zone: cz_solid_57
Selecting finite volume options model type explicitPorositySource
    Source: source58
    - selecting cells using cellZone cz_solid_58
    - selected 1894 cell(s) with volume 0.00214465
Porosity region source58:
    selecting model: DarcyForchheimer
    creating porous zone: cz_solid_58
Selecting finite volume options model type explicitPorositySource
    Source: source59
    - selecting cells using cellZone cz_solid_59
    - selected 1918 cell(s) with volume 0.00214465
Porosity region source59:
    selecting model: DarcyForchheimer
    creating porous zone: cz_solid_59
Selecting finite volume options model type explicitPorositySource
    Source: source60
    - selecting cells using cellZone cz_solid_60
    - selected 2100 cell(s) with volume 0.00214191
Porosity region source60:
    selecting model: DarcyForchheimer
    creating porous zone: cz_solid_60
Selecting finite volume options model type explicitPorositySource
    Source: source61
    - selecting cells using cellZone cz_solid_61
    - selected 2100 cell(s) with volume 0.00214373
Porosity region source61:
    selecting model: DarcyForchheimer
    creating porous zone: cz_solid_61
Selecting finite volume options model type explicitPorositySource
    Source: source62
    - selecting cells using cellZone cz_solid_62
    - selected 2058 cell(s) with volume 0.00214161
Porosity region source62:
    selecting model: DarcyForchheimer
    creating porous zone: cz_solid_62
Selecting finite volume options model type explicitPorositySource
    Source: source63
    - selecting cells using cellZone cz_solid_63
    - selected 1946 cell(s) with volume 0.00214341
Porosity region source63:
    selecting model: DarcyForchheimer
    creating porous zone: cz_solid_63
Selecting finite volume options model type explicitPorositySource
    Source: source64
    - selecting cells using cellZone cz_solid_64
    - selected 1322 cell(s) with volume 0.00213888
Porosity region source64:
    selecting model: DarcyForchheimer
    creating porous zone: cz_solid_64
Selecting finite volume options model type explicitPorositySource
    Source: source65
    - selecting cells using cellZone cz_solid_65
    - selected 2044 cell(s) with volume 0.00214201
Porosity region source65:
    selecting model: DarcyForchheimer
    creating porous zone: cz_solid_65
Selecting finite volume options model type explicitPorositySource
    Source: source66
    - selecting cells using cellZone cz_solid_66
    - selected 1988 cell(s) with volume 0.00214327
Porosity region source66:
    selecting model: DarcyForchheimer
    creating porous zone: cz_solid_66
Selecting finite volume options model type explicitPorositySource
    Source: source67
    - selecting cells using cellZone cz_solid_67
    - selected 2037 cell(s) with volume 0.00214365
Porosity region source67:
    selecting model: DarcyForchheimer
    creating porous zone: cz_solid_67
Selecting finite volume options model type explicitPorositySource
    Source: source68
    - selecting cells using cellZone cz_solid_68
    - selected 1434 cell(s) with volume 0.00213925
Porosity region source68:
    selecting model: DarcyForchheimer
    creating porous zone: cz_solid_68
Selecting finite volume options model type explicitPorositySource
    Source: source69
    - selecting cells using cellZone cz_solid_69
    - selected 2016 cell(s) with volume 0.00214366
Porosity region source69:
    selecting model: DarcyForchheimer
    creating porous zone: cz_solid_69
Selecting finite volume options model type explicitPorositySource
    Source: source70
    - selecting cells using cellZone cz_solid_70
    - selected 2028 cell(s) with volume 0.00214485
Porosity region source70:
    selecting model: DarcyForchheimer
    creating porous zone: cz_solid_70
Selecting finite volume options model type explicitPorositySource
    Source: source71
    - selecting cells using cellZone cz_solid_71
    - selected 2093 cell(s) with volume 0.00214119
Porosity region source71:
    selecting model: DarcyForchheimer
    creating porous zone: cz_solid_71
Selecting finite volume options model type explicitPorositySource
    Source: source72
    - selecting cells using cellZone cz_solid_72
    - selected 2170 cell(s) with volume 0.00214457
Porosity region source72:
    selecting model: DarcyForchheimer
    creating porous zone: cz_solid_72
Selecting finite volume options model type explicitPorositySource
    Source: source73
    - selecting cells using cellZone cz_solid_73
    - selected 1781 cell(s) with volume 0.00214199
Porosity region source73:
    selecting model: DarcyForchheimer
    creating porous zone: cz_solid_73
Selecting finite volume options model type explicitPorositySource
    Source: source74
    - selecting cells using cellZone cz_solid_74
    - selected 1907 cell(s) with volume 0.00214478
Porosity region source74:
    selecting model: DarcyForchheimer
    creating porous zone: cz_solid_74
Selecting finite volume options model type explicitPorositySource
    Source: source75
    - selecting cells using cellZone cz_solid_75
    - selected 1988 cell(s) with volume 0.0021429
Porosity region source75:
    selecting model: DarcyForchheimer
    creating porous zone: cz_solid_75
Selecting finite volume options model type explicitPorositySource
    Source: source76
    - selecting cells using cellZone cz_solid_76
    - selected 1781 cell(s) with volume 0.00214194
Porosity region source76:
    selecting model: DarcyForchheimer
    creating porous zone: cz_solid_76
Selecting finite volume options model type explicitPorositySource
    Source: source77
    - selecting cells using cellZone cz_solid_77
    - selected 1872 cell(s) with volume 0.00213789
Porosity region source77:
    selecting model: DarcyForchheimer
    creating porous zone: cz_solid_77
Selecting finite volume options model type explicitPorositySource
    Source: source78
    - selecting cells using cellZone cz_solid_78
    - selected 1900 cell(s) with volume 0.00214457
Porosity region source78:
    selecting model: DarcyForchheimer
    creating porous zone: cz_solid_78
Selecting finite volume options model type explicitPorositySource
    Source: source79
    - selecting cells using cellZone cz_solid_79
    - selected 1925 cell(s) with volume 0.00214435
Porosity region source79:
    selecting model: DarcyForchheimer
    creating porous zone: cz_solid_79
Selecting finite volume options model type explicitPorositySource
    Source: source80
    - selecting cells using cellZone cz_solid_80
    - selected 2123 cell(s) with volume 0.00214167
Porosity region source80:
    selecting model: DarcyForchheimer
    creating porous zone: cz_solid_80
Selecting finite volume options model type explicitPorositySource
    Source: source81
    - selecting cells using cellZone cz_solid_81
    - selected 2123 cell(s) with volume 0.00214358
Porosity region source81:
    selecting model: DarcyForchheimer
    creating porous zone: cz_solid_81
Selecting finite volume options model type explicitPorositySource
    Source: source82
    - selecting cells using cellZone cz_solid_82
    - selected 2084 cell(s) with volume 0.00214148
Porosity region source82:
    selecting model: DarcyForchheimer
    creating porous zone: cz_solid_82
Selecting finite volume options model type explicitPorositySource
    Source: source83
    - selecting cells using cellZone cz_solid_83
    - selected 1976 cell(s) with volume 0.00214352
Porosity region source83:
    selecting model: DarcyForchheimer
    creating porous zone: cz_solid_83
Selecting finite volume options model type explicitPorositySource
    Source: source84
    - selecting cells using cellZone cz_solid_84
    - selected 1400 cell(s) with volume 0.00213967
Porosity region source84:
    selecting model: DarcyForchheimer
    creating porous zone: cz_solid_84
Selecting finite volume options model type explicitPorositySource
    Source: source85
    - selecting cells using cellZone cz_solid_85
    - selected 2036 cell(s) with volume 0.00214194
Porosity region source85:
    selecting model: DarcyForchheimer
    creating porous zone: cz_solid_85
Selecting finite volume options model type explicitPorositySource
    Source: source86
    - selecting cells using cellZone cz_solid_86
    - selected 2025 cell(s) with volume 0.0021429
Porosity region source86:
    selecting model: DarcyForchheimer
    creating porous zone: cz_solid_86
Selecting finite volume options model type explicitPorositySource
    Source: source87
    - selecting cells using cellZone cz_solid_87
    - selected 2069 cell(s) with volume 0.00214364
Porosity region source87:
    selecting model: DarcyForchheimer
    creating porous zone: cz_solid_87
Selecting finite volume options model type explicitPorositySource
    Source: source88
    - selecting cells using cellZone cz_solid_88
    - selected 1505 cell(s) with volume 0.00213996
Porosity region source88:
    selecting model: DarcyForchheimer
    creating porous zone: cz_solid_88
Selecting finite volume options model type explicitPorositySource
    Source: source89
    - selecting cells using cellZone cz_solid_89
    - selected 2053 cell(s) with volume 0.00214335
Porosity region source89:
    selecting model: DarcyForchheimer
    creating porous zone: cz_solid_89
Selecting finite volume options model type explicitPorositySource
    Source: source90
    - selecting cells using cellZone cz_solid_90
    - selected 2054 cell(s) with volume 0.00214467
Porosity region source90:
    selecting model: DarcyForchheimer
    creating porous zone: cz_solid_90
Selecting finite volume options model type explicitPorositySource
    Source: source91
    - selecting cells using cellZone cz_solid_91
    - selected 2116 cell(s) with volume 0.00214095
Porosity region source91:
    selecting model: DarcyForchheimer
    creating porous zone: cz_solid_91
Selecting finite volume options model type explicitPorositySource
    Source: source92
    - selecting cells using cellZone cz_solid_92
    - selected 2186 cell(s) with volume 0.00214464
Porosity region source92:
    selecting model: DarcyForchheimer
    creating porous zone: cz_solid_92
Selecting finite volume options model type explicitPorositySource
    Source: source93
    - selecting cells using cellZone cz_solid_93
    - selected 1800 cell(s) with volume 0.00214279
Porosity region source93:
    selecting model: DarcyForchheimer
    creating porous zone: cz_solid_93
Selecting finite volume options model type explicitPorositySource
    Source: source94
    - selecting cells using cellZone cz_solid_94
    - selected 1916 cell(s) with volume 0.00214466
Porosity region source94:
    selecting model: DarcyForchheimer
    creating porous zone: cz_solid_94
Selecting finite volume options model type explicitPorositySource
    Source: source95
    - selecting cells using cellZone cz_solid_95
    - selected 2014 cell(s) with volume 0.00214267
Porosity region source95:
    selecting model: DarcyForchheimer
    creating porous zone: cz_solid_95
Selecting finite volume options model type explicitPorositySource
    Source: source96
    - selecting cells using cellZone cz_solid_96
    - selected 1800 cell(s) with volume 0.00214173
Porosity region source96:
    selecting model: DarcyForchheimer
    creating porous zone: cz_solid_96
Selecting finite volume options model type explicitPorositySource
    Source: source97
    - selecting cells using cellZone cz_solid_97
    - selected 1902 cell(s) with volume 0.002138
Porosity region source97:
    selecting model: DarcyForchheimer
    creating porous zone: cz_solid_97
Selecting finite volume options model type explicitPorositySource
    Source: source98
    - selecting cells using cellZone cz_solid_98
    - selected 1930 cell(s) with volume 0.00214465
Porosity region source98:
    selecting model: DarcyForchheimer
    creating porous zone: cz_solid_98
Selecting finite volume options model type explicitPorositySource
    Source: source99
    - selecting cells using cellZone cz_solid_99
    - selected 1937 cell(s) with volume 0.00214454
Porosity region source99:
    selecting model: DarcyForchheimer
    creating porous zone: cz_solid_99

Starting time loop

forces porousforces:
--> FOAM Warning : 
    From function Foam::labelHashSet Foam::polyBoundaryMesh::patchSet(const Foam::UList<Foam::wordRe>&, bool, bool) const
    in file meshes/polyMesh/polyBoundaryMesh/polyBoundaryMesh.C at line 798
    Cannot find any patch or group names matching solid_to_fluid
    Including porosity effects


surfaceFieldValue massFlowAtFilter_0:
    total faces  = 1654
    total area   = 0.10168




surfaceFieldValue massFlowAtFilter_1:
    total faces  = 1722
    total area   = 0.101652




surfaceFieldValue massFlowAtFilter_2:
    total faces  = 1616
    total area   = 0.101676




surfaceFieldValue massFlowAtFilter_3:
    total faces  = 1674
    total area   = 0.101745




surfaceFieldValue massFlowAtFilter_4:
    total faces  = 1414
    total area   = 0.101631




surfaceFieldValue massFlowAtFilter_5:
    total faces  = 1618
    total area   = 0.101691




surfaceFieldValue massFlowAtFilter_6:
    total faces  = 1676
    total area   = 0.101746




surfaceFieldValue massFlowAtFilter_7:
    total faces  = 1641
    total area   = 0.101677




surfaceFieldValue massFlowAtFilter_8:
    total faces  = 1414
    total area   = 0.101636




surfaceFieldValue massFlowAtFilter_9:
    total faces  = 1700
    total area   = 0.101746




surfaceFieldValue massFlowAtFilter_10:
    total faces  = 1732
    total area   = 0.101666




surfaceFieldValue massFlowAtFilter_11:
    total faces  = 1724
    total area   = 0.101624




surfaceFieldValue massFlowAtFilter_12:
    total faces  = 1722
    total area   = 0.101666




surfaceFieldValue massFlowAtFilter_13:
    total faces  = 1610
    total area   = 0.10171




surfaceFieldValue massFlowAtFilter_14:
    total faces  = 1729
    total area   = 0.101691




surfaceFieldValue massFlowAtFilter_15:
    total faces  = 1648
    total area   = 0.101659




surfaceFieldValue massFlowAtFilter_16:
    total faces  = 1604
    total area   = 0.101689




surfaceFieldValue massFlowAtFilter_17:
    total faces  = 1552
    total area   = 0.10166




surfaceFieldValue massFlowAtFilter_18:
    total faces  = 1725
    total area   = 0.101715




surfaceFieldValue massFlowAtFilter_19:
    total faces  = 1646
    total area   = 0.101722




surfaceFieldValue massFlowAtFilter_20:
    total faces  = 1696
    total area   = 0.10165




surfaceFieldValue massFlowAtFilter_21:
    total faces  = 1768
    total area   = 0.101627




surfaceFieldValue massFlowAtFilter_22:
    total faces  = 1658
    total area   = 0.101641




surfaceFieldValue massFlowAtFilter_23:
    total faces  = 1718
    total area   = 0.101654




surfaceFieldValue massFlowAtFilter_24:
    total faces  = 1460
    total area   = 0.101583




surfaceFieldValue massFlowAtFilter_25:
    total faces  = 1660
    total area   = 0.101655




surfaceFieldValue massFlowAtFilter_26:
    total faces  = 1720
    total area   = 0.101685




surfaceFieldValue massFlowAtFilter_27:
    total faces  = 1680
    total area   = 0.101616




surfaceFieldValue massFlowAtFilter_28:
    total faces  = 1460
    total area   = 0.101594




surfaceFieldValue massFlowAtFilter_29:
    total faces  = 1720
    total area   = 0.101703




surfaceFieldValue massFlowAtFilter_30:
    total faces  = 1784
    total area   = 0.101638




surfaceFieldValue massFlowAtFilter_31:
    total faces  = 1768
    total area   = 0.101633




surfaceFieldValue massFlowAtFilter_32:
    total faces  = 1766
    total area   = 0.101617




surfaceFieldValue massFlowAtFilter_33:
    total faces  = 1636
    total area   = 0.101679




surfaceFieldValue massFlowAtFilter_34:
    total faces  = 1782
    total area   = 0.101621




surfaceFieldValue massFlowAtFilter_35:
    total faces  = 1698
    total area   = 0.101614




surfaceFieldValue massFlowAtFilter_36:
    total faces  = 1636
    total area   = 0.101687




surfaceFieldValue massFlowAtFilter_37:
    total faces  = 1600
    total area   = 0.101636




surfaceFieldValue massFlowAtFilter_38:
    total faces  = 1778
    total area   = 0.101665




surfaceFieldValue massFlowAtFilter_39:
    total faces  = 1690
    total area   = 0.10165




surfaceFieldValue massFlowAtFilter_40:
    total faces  = 1654
    total area   = 0.101695




surfaceFieldValue massFlowAtFilter_41:
    total faces  = 1724
    total area   = 0.101679




surfaceFieldValue massFlowAtFilter_42:
    total faces  = 1616
    total area   = 0.101693




surfaceFieldValue massFlowAtFilter_43:
    total faces  = 1674
    total area   = 0.101777




surfaceFieldValue massFlowAtFilter_44:
    total faces  = 1414
    total area   = 0.101645




surfaceFieldValue massFlowAtFilter_45:
    total faces  = 1618
    total area   = 0.101699




surfaceFieldValue massFlowAtFilter_46:
    total faces  = 1676
    total area   = 0.101784




surfaceFieldValue massFlowAtFilter_47:
    total faces  = 1636
    total area   = 0.101709




surfaceFieldValue massFlowAtFilter_48:
    total faces  = 1414
    total area   = 0.101642




surfaceFieldValue massFlowAtFilter_49:
    total faces  = 1676
    total area   = 0.101762




surfaceFieldValue massFlowAtFilter_50:
    total faces  = 1740
    total area   = 0.101711




surfaceFieldValue massFlowAtFilter_51:
    total faces  = 1724
    total area   = 0.10171




surfaceFieldValue massFlowAtFilter_52:
    total faces  = 1722
    total area   = 0.101711




surfaceFieldValue massFlowAtFilter_53:
    total faces  = 1610
    total area   = 0.101754




surfaceFieldValue massFlowAtFilter_54:
    total faces  = 1736
    total area   = 0.101708




surfaceFieldValue massFlowAtFilter_55:
    total faces  = 1648
    total area   = 0.101695




surfaceFieldValue massFlowAtFilter_56:
    total faces  = 1604
    total area   = 0.101738




surfaceFieldValue massFlowAtFilter_57:
    total faces  = 1536
    total area   = 0.101678




surfaceFieldValue massFlowAtFilter_58:
    total faces  = 1732
    total area   = 0.101753




surfaceFieldValue massFlowAtFilter_59:
    total faces  = 1646
    total area   = 0.101735




surfaceFieldValue massFlowAtFilter_60:
    total faces  = 1654
    total area   = 0.1017




surfaceFieldValue massFlowAtFilter_61:
    total faces  = 1724
    total area   = 0.101694




surfaceFieldValue massFlowAtFilter_62:
    total faces  = 1616
    total area   = 0.101698




surfaceFieldValue massFlowAtFilter_63:
    total faces  = 1674
    total area   = 0.101792




surfaceFieldValue massFlowAtFilter_64:
    total faces  = 1400
    total area   = 0.101633




surfaceFieldValue massFlowAtFilter_65:
    total faces  = 1618
    total area   = 0.101707




surfaceFieldValue massFlowAtFilter_66:
    total faces  = 1676
    total area   = 0.101772




surfaceFieldValue massFlowAtFilter_67:
    total faces  = 1639
    total area   = 0.101716




surfaceFieldValue massFlowAtFilter_68:
    total faces  = 1400
    total area   = 0.101641




surfaceFieldValue massFlowAtFilter_69:
    total faces  = 1688
    total area   = 0.101795




surfaceFieldValue massFlowAtFilter_70:
    total faces  = 1736
    total area   = 0.101726




surfaceFieldValue massFlowAtFilter_71:
    total faces  = 1724
    total area   = 0.101706




surfaceFieldValue massFlowAtFilter_72:
    total faces  = 1722
    total area   = 0.101715




surfaceFieldValue massFlowAtFilter_73:
    total faces  = 1595
    total area   = 0.101761




surfaceFieldValue massFlowAtFilter_74:
    total faces  = 1734
    total area   = 0.101709




surfaceFieldValue massFlowAtFilter_75:
    total faces  = 1654
    total area   = 0.101718




surfaceFieldValue massFlowAtFilter_76:
    total faces  = 1595
    total area   = 0.101763




surfaceFieldValue massFlowAtFilter_77:
    total faces  = 1526
    total area   = 0.101675




surfaceFieldValue massFlowAtFilter_78:
    total faces  = 1730
    total area   = 0.101781




surfaceFieldValue massFlowAtFilter_79:
    total faces  = 1646
    total area   = 0.101744




surfaceFieldValue massFlowAtFilter_80:
    total faces  = 1661
    total area   = 0.101697




surfaceFieldValue massFlowAtFilter_81:
    total faces  = 1731
    total area   = 0.101653




surfaceFieldValue massFlowAtFilter_82:
    total faces  = 1626
    total area   = 0.101694




surfaceFieldValue massFlowAtFilter_83:
    total faces  = 1684
    total area   = 0.101721




surfaceFieldValue massFlowAtFilter_84:
    total faces  = 1446
    total area   = 0.101621




surfaceFieldValue massFlowAtFilter_85:
    total faces  = 1624
    total area   = 0.101696




surfaceFieldValue massFlowAtFilter_86:
    total faces  = 1686
    total area   = 0.101695




surfaceFieldValue massFlowAtFilter_87:
    total faces  = 1651
    total area   = 0.101701




surfaceFieldValue massFlowAtFilter_88:
    total faces  = 1446
    total area   = 0.101617




surfaceFieldValue massFlowAtFilter_89:
    total faces  = 1698
    total area   = 0.101717




surfaceFieldValue massFlowAtFilter_90:
    total faces  = 1742
    total area   = 0.101689




surfaceFieldValue massFlowAtFilter_91:
    total faces  = 1731
    total area   = 0.10165




surfaceFieldValue massFlowAtFilter_92:
    total faces  = 1729
    total area   = 0.101665




surfaceFieldValue massFlowAtFilter_93:
    total faces  = 1610
    total area   = 0.101733




surfaceFieldValue massFlowAtFilter_94:
    total faces  = 1741
    total area   = 0.101686




surfaceFieldValue massFlowAtFilter_95:
    total faces  = 1669
    total area   = 0.101694




surfaceFieldValue massFlowAtFilter_96:
    total faces  = 1610
    total area   = 0.101718




surfaceFieldValue massFlowAtFilter_97:
    total faces  = 1529
    total area   = 0.101679




surfaceFieldValue massFlowAtFilter_98:
    total faces  = 1737
    total area   = 0.101783




surfaceFieldValue massFlowAtFilter_99:
    total faces  = 1658
    total area   = 0.101716


Time = 1

DILUPBiCG:  Solving for Ux, Initial residual = 1, Final residual = 8.88126e-06, No Iterations 5
DILUPBiCG:  Solving for Uy, Initial residual = 1, Final residual = 4.10529e-06, No Iterations 7
DILUPBiCG:  Solving for Uz, Initial residual = 1, Final residual = 6.86515e-06, No Iterations 6
DICPCG:  Solving for p, Initial residual = 1, Final residual = 0.0995215, No Iterations 321
DICPCG:  Solving for p, Initial residual = 0.00358766, Final residual = 0.000255585, No Iterations 4
DICPCG:  Solving for p, Initial residual = 0.000492534, Final residual = 4.70971e-05, No Iterations 25
time step continuity errors : sum local = 0.0518838, global = -0.000357161, cumulative = -0.000357161
DILUPBiCG:  Solving for epsilon, Initial residual = 0.0486035, Final residual = 9.25226e-06, No Iterations 3
DILUPBiCG:  Solving for k, Initial residual = 1, Final residual = 4.41603e-07, No Iterations 6
ExecutionTime = 5.62 s  ClockTime = 6 s

Time = 2

DILUPBiCG:  Solving for Ux, Initial residual = 0.00010885, Final residual = 3.0882e-06, No Iterations 2
DILUPBiCG:  Solving for Uy, Initial residual = 5.20746e-05, Final residual = 9.83783e-06, No Iterations 1
DILUPBiCG:  Solving for Uz, Initial residual = 0.000102338, Final residual = 2.07201e-06, No Iterations 2
DICPCG:  Solving for p, Initial residual = 0.012834, Final residual = 0.00127544, No Iterations 115
DICPCG:  Solving for p, Initial residual = 0.00549254, Final residual = 0.000536793, No Iterations 254
DICPCG:  Solving for p, Initial residual = 0.00494233, Final residual = 0.000482708, No Iterations 21
time step continuity errors : sum local = 0.0669388, global = -0.000389495, cumulative = -0.000746656
DILUPBiCG:  Solving for epsilon, Initial residual = 0.0138825, Final residual = 8.1078e-07, No Iterations 4
DILUPBiCG:  Solving for k, Initial residual = 0.52117, Final residual = 6.53218e-07, No Iterations 6
ExecutionTime = 9.52 s  ClockTime = 10 s

Time = 3

DILUPBiCG:  Solving for Ux, Initial residual = 1.58819e-05, Final residual = 2.79583e-06, No Iterations 1
DILUPBiCG:  Solving for Uy, Initial residual = 1.07435e-05, Final residual = 2.10427e-06, No Iterations 1
DILUPBiCG:  Solving for Uz, Initial residual = 2.52751e-05, Final residual = 8.0283e-06, No Iterations 1
DICPCG:  Solving for p, Initial residual = 0.0177109, Final residual = 0.00172706, No Iterations 304
DICPCG:  Solving for p, Initial residual = 0.00713484, Final residual = 0.000620981, No Iterations 4
DICPCG:  Solving for p, Initial residual = 0.00101166, Final residual = 9.93354e-05, No Iterations 39
time step continuity errors : sum local = 0.058084, global = -0.00019283, cumulative = -0.000939487
DILUPBiCG:  Solving for epsilon, Initial residual = 0.0176651, Final residual = 1.17799e-06, No Iterations 4
DILUPBiCG:  Solving for k, Initial residual = 0.257723, Final residual = 3.10692e-07, No Iterations 6
ExecutionTime = 13.03 s  ClockTime = 13 s

Time = 4

DILUPBiCG:  Solving for Ux, Initial residual = 4.7162e-06, Final residual = 4.7162e-06, No Iterations 0
DILUPBiCG:  Solving for Uy, Initial residual = 1.8766e-06, Final residual = 1.8766e-06, No Iterations 0
DILUPBiCG:  Solving for Uz, Initial residual = 6.17373e-06, Final residual = 6.17373e-06, No Iterations 0
DICPCG:  Solving for p, Initial residual = 0.0754721, Final residual = 0.00736127, No Iterations 309
DICPCG:  Solving for p, Initial residual = 0.00512607, Final residual = 0.000431649, No Iterations 4
DICPCG:  Solving for p, Initial residual = 0.000709691, Final residual = 7.04514e-05, No Iterations 39
time step continuity errors : sum local = 0.0384041, global = -0.000208626, cumulative = -0.00114811
DILUPBiCG:  Solving for epsilon, Initial residual = 0.0164912, Final residual = 5.15264e-06, No Iterations 3
DILUPBiCG:  Solving for k, Initial residual = 0.151737, Final residual = 7.50834e-07, No Iterations 5
ExecutionTime = 16.45 s  ClockTime = 17 s

Time = 5

DILUPBiCG:  Solving for Ux, Initial residual = 1.30278e-05, Final residual = 2.75702e-06, No Iterations 1
DILUPBiCG:  Solving for Uy, Initial residual = 8.00153e-06, Final residual = 8.00153e-06, No Iterations 0
DILUPBiCG:  Solving for Uz, Initial residual = 1.22683e-05, Final residual = 3.19792e-06, No Iterations 1
DICPCG:  Solving for p, Initial residual = 0.0197078, Final residual = 0.00191964, No Iterations 47
DICPCG:  Solving for p, Initial residual = 0.00613609, Final residual = 0.000612775, No Iterations 263
DICPCG:  Solving for p, Initial residual = 0.00199288, Final residual = 0.000194874, No Iterations 4
time step continuity errors : sum local = 0.0678652, global = -0.00144895, cumulative = -0.00259706
DILUPBiCG:  Solving for epsilon, Initial residual = 0.0137251, Final residual = 4.02459e-06, No Iterations 3
DILUPBiCG:  Solving for k, Initial residual = 0.109173, Final residual = 7.85575e-07, No Iterations 5
ExecutionTime = 19.64 s  ClockTime = 20 s

Time = 6

DILUPBiCG:  Solving for Ux, Initial residual = 1.69459e-05, Final residual = 3.80484e-06, No Iterations 1
DILUPBiCG:  Solving for Uy, Initial residual = 1.18625e-05, Final residual = 2.40057e-06, No Iterations 1
DILUPBiCG:  Solving for Uz, Initial residual = 1.3652e-05, Final residual = 4.42869e-06, No Iterations 1
DICPCG:  Solving for p, Initial residual = 0.0235625, Final residual = 0.00233078, No Iterations 290
DICPCG:  Solving for p, Initial residual = 0.00789825, Final residual = 0.000763405, No Iterations 19
DICPCG:  Solving for p, Initial residual = 0.00136825, Final residual = 0.000133963, No Iterations 40
time step continuity errors : sum local = 0.0584467, global = -9.08316e-05, cumulative = -0.00268789
DILUPBiCG:  Solving for epsilon, Initial residual = 0.0126654, Final residual = 4.06843e-06, No Iterations 3
DILUPBiCG:  Solving for k, Initial residual = 0.0936647, Final residual = 5.86271e-07, No Iterations 5
ExecutionTime = 23.08 s  ClockTime = 23 s

Time = 7

DILUPBiCG:  Solving for Ux, Initial residual = 1.26122e-05, Final residual = 6.17446e-07, No Iterations 2
DILUPBiCG:  Solving for Uy, Initial residual = 4.0222e-06, Final residual = 4.0222e-06, No Iterations 0
DILUPBiCG:  Solving for Uz, Initial residual = 7.19835e-06, Final residual = 7.19835e-06, No Iterations 0
DICPCG:  Solving for p, Initial residual = 0.0803074, Final residual = 0.00800717, No Iterations 300
DICPCG:  Solving for p, Initial residual = 0.00471395, Final residual = 0.000464457, No Iterations 4
DICPCG:  Solving for p, Initial residual = 0.000689153, Final residual = 6.7216e-05, No Iterations 50
time step continuity errors : sum local = 0.031548, global = 3.57442e-05, cumulative = -0.00265215
DILUPBiCG:  Solving for epsilon, Initial residual = 0.0116912, Final residual = 3.29648e-06, No Iterations 3
DILUPBiCG:  Solving for k, Initial residual = 0.0768966, Final residual = 5.82091e-07, No Iterations 5
ExecutionTime = 26.56 s  ClockTime = 27 s

Time = 8

DILUPBiCG:  Solving for Ux, Initial residual = 1.43551e-05, Final residual = 3.00284e-06, No Iterations 1
DILUPBiCG:  Solving for Uy, Initial residual = 1.00992e-05, Final residual = 2.04629e-06, No Iterations 1
DILUPBiCG:  Solving for Uz, Initial residual = 1.37213e-05, Final residual = 3.42225e-06, No Iterations 1
DICPCG:  Solving for p, Initial residual = 0.0259873, Final residual = 0.00251875, No Iterations 63
DICPCG:  Solving for p, Initial residual = 0.00784956, Final residual = 0.000774621, No Iterations 81
DICPCG:  Solving for p, Initial residual = 0.00206577, Final residual = 0.000199722, No Iterations 235
time step continuity errors : sum local = 0.0236829, global = 6.51688e-05, cumulative = -0.00258698
DILUPBiCG:  Solving for epsilon, Initial residual = 0.0117019, Final residual = 4.3727e-06, No Iterations 3
DILUPBiCG:  Solving for k, Initial residual = 0.063642, Final residual = 4.10182e-08, No Iterations 6
ExecutionTime = 30.27 s  ClockTime = 30 s

Time = 9

DILUPBiCG:  Solving for Ux, Initial residual = 5.04034e-06, Final residual = 5.04034e-06, No Iterations 0
DILUPBiCG:  Solving for Uy, Initial residual = 5.84609e-06, Final residual = 5.84609e-06, No Iterations 0
DILUPBiCG:  Solving for Uz, Initial residual = 6.55329e-06, Final residual = 6.55329e-06, No Iterations 0
DICPCG:  Solving for p, Initial residual = 0.0203142, Final residual = 0.00189441, No Iterations 288
DICPCG:  Solving for p, Initial residual = 0.0425556, Final residual = 0.00423857, No Iterations 14
DICPCG:  Solving for p, Initial residual = 0.00748456, Final residual = 0.000718941, No Iterations 46
time step continuity errors : sum local = 0.0160826, global = 0.000141268, cumulative = -0.00244571
DILUPBiCG:  Solving for epsilon, Initial residual = 0.010957, Final residual = 3.25417e-06, No Iterations 3
DILUPBiCG:  Solving for k, Initial residual = 0.0563338, Final residual = 7.96109e-07, No Iterations 5
ExecutionTime = 33.64 s  ClockTime = 34 s

Time = 10

DILUPBiCG:  Solving for Ux, Initial residual = 3.40025e-06, Final residual = 3.40025e-06, No Iterations 0
DILUPBiCG:  Solving for Uy, Initial residual = 3.56666e-06, Final residual = 3.56666e-06, No Iterations 0
DILUPBiCG:  Solving for Uz, Initial residual = 4.23201e-06, Final residual = 4.23201e-06, No Iterations 0
DICPCG:  Solving for p, Initial residual = 0.018667, Final residual = 0.00182969, No Iterations 296
DICPCG:  Solving for p, Initial residual = 0.00935207, Final residual = 0.000932137, No Iterations 8
DICPCG:  Solving for p, Initial residual = 0.00144902, Final residual = 0.00014255, No Iterations 52
time step continuity errors : sum local = 0.0127141, global = 0.000113736, cumulative = -0.00233198
DILUPBiCG:  Solving for epsilon, Initial residual = 0.0103364, Final residual = 2.87611e-06, No Iterations 3
DILUPBiCG:  Solving for k, Initial residual = 0.0512632, Final residual = 5.62421e-07, No Iterations 5
ExecutionTime = 37.05 s  ClockTime = 37 s

Time = 11

DILUPBiCG:  Solving for Ux, Initial residual = 4.57269e-06, Final residual = 4.57269e-06, No Iterations 0
DILUPBiCG:  Solving for Uy, Initial residual = 1.29508e-06, Final residual = 1.29508e-06, No Iterations 0
DILUPBiCG:  Solving for Uz, Initial residual = 4.177e-06, Final residual = 4.177e-06, No Iterations 0
DICPCG:  Solving for p, Initial residual = 0.030153, Final residual = 0.0029449, No Iterations 301
DICPCG:  Solving for p, Initial residual = 0.00524116, Final residual = 0.000508536, No Iterations 4
DICPCG:  Solving for p, Initial residual = 0.000765552, Final residual = 7.39516e-05, No Iterations 52
time step continuity errors : sum local = 0.00809622, global = 4.1055e-05, cumulative = -0.00229092
DILUPBiCG:  Solving for epsilon, Initial residual = 0.0097282, Final residual = 2.74538e-06, No Iterations 3
DILUPBiCG:  Solving for k, Initial residual = 0.0474496, Final residual = 3.46724e-08, No Iterations 6
ExecutionTime = 40.48 s  ClockTime = 41 s

Time = 12

DILUPBiCG:  Solving for Ux, Initial residual = 5.42164e-06, Final residual = 5.42164e-06, No Iterations 0
DILUPBiCG:  Solving for Uy, Initial residual = 1.20981e-06, Final residual = 1.20981e-06, No Iterations 0
DILUPBiCG:  Solving for Uz, Initial residual = 4.64282e-06, Final residual = 4.64282e-06, No Iterations 0
DICPCG:  Solving for p, Initial residual = 0.0516717, Final residual = 0.00515804, No Iterations 278
DICPCG:  Solving for p, Initial residual = 0.00393452, Final residual = 0.00038004, No Iterations 27
DICPCG:  Solving for p, Initial residual = 0.000832025, Final residual = 8.26044e-05, No Iterations 45
time step continuity errors : sum local = 0.00752079, global = 2.05712e-05, cumulative = -0.00227035
DILUPBiCG:  Solving for epsilon, Initial residual = 0.00922881, Final residual = 2.78718e-06, No Iterations 3
DILUPBiCG:  Solving for k, Initial residual = 0.0444996, Final residual = 4.06534e-07, No Iterations 5
ExecutionTime = 43.87 s  ClockTime = 44 s

Time = 13

DILUPBiCG:  Solving for Ux, Initial residual = 5.1518e-06, Final residual = 5.1518e-06, No Iterations 0
DILUPBiCG:  Solving for Uy, Initial residual = 2.10461e-06, Final residual = 2.10461e-06, No Iterations 0
DILUPBiCG:  Solving for Uz, Initial residual = 4.72479e-06, Final residual = 4.72479e-06, No Iterations 0
DICPCG:  Solving for p, Initial residual = 0.0247933, Final residual = 0.00247358, No Iterations 62
DICPCG:  Solving for p, Initial residual = 0.00776541, Final residual = 0.000737485, No Iterations 82
DICPCG:  Solving for p, Initial residual = 0.00204719, Final residual = 0.000195568, No Iterations 249
time step continuity errors : sum local = 0.00773112, global = -5.23311e-05, cumulative = -0.00232268
DILUPBiCG:  Solving for epsilon, Initial residual = 0.00891495, Final residual = 3.06384e-06, No Iterations 3
DILUPBiCG:  Solving for k, Initial residual = 0.0420874, Final residual = 5.86645e-07, No Iterations 5
ExecutionTime = 47.55 s  ClockTime = 48 s

Time = 14

DILUPBiCG:  Solving for Ux, Initial residual = 3.96458e-06, Final residual = 3.96458e-06, No Iterations 0
DILUPBiCG:  Solving for Uy, Initial residual = 2.35069e-06, Final residual = 2.35069e-06, No Iterations 0
DILUPBiCG:  Solving for Uz, Initial residual = 3.86705e-06, Final residual = 3.86705e-06, No Iterations 0
DICPCG:  Solving for p, Initial residual = 0.0203846, Final residual = 0.00201175, No Iterations 103
DICPCG:  Solving for p, Initial residual = 0.00773516, Final residual = 0.000754148, No Iterations 206
DICPCG:  Solving for p, Initial residual = 0.0179295, Final residual = 0.00174833, No Iterations 15
time step continuity errors : sum local = 0.0134522, global = 0.000348613, cumulative = -0.00197407
DILUPBiCG:  Solving for epsilon, Initial residual = 0.00874928, Final residual = 3.85687e-06, No Iterations 3
DILUPBiCG:  Solving for k, Initial residual = 0.0398921, Final residual = 2.58704e-08, No Iterations 6
ExecutionTime = 50.77 s  ClockTime = 51 s

Time = 15

DILUPBiCG:  Solving for Ux, Initial residual = 2.69529e-06, Final residual = 2.69529e-06, No Iterations 0
DILUPBiCG:  Solving for Uy, Initial residual = 1.85448e-06, Final residual = 1.85448e-06, No Iterations 0
DILUPBiCG:  Solving for Uz, Initial residual = 2.73442e-06, Final residual = 2.73442e-06, No Iterations 0
DICPCG:  Solving for p, Initial residual = 0.0200712, Final residual = 0.00190838, No Iterations 295
DICPCG:  Solving for p, Initial residual = 0.0109873, Final residual = 0.00108855, No Iterations 15
DICPCG:  Solving for p, Initial residual = 0.00185275, Final residual = 0.000183281, No Iterations 49
time step continuity errors : sum local = 0.00555347, global = -6.45516e-05, cumulative = -0.00203862
DILUPBiCG:  Solving for epsilon, Initial residual = 0.00865605, Final residual = 5.93187e-06, No Iterations 3
DILUPBiCG:  Solving for k, Initial residual = 0.0377779, Final residual = 2.49286e-08, No Iterations 6
ExecutionTime = 54.25 s  ClockTime = 54 s

Time = 16

DILUPBiCG:  Solving for Ux, Initial residual = 2.4244e-06, Final residual = 2.4244e-06, No Iterations 0
DILUPBiCG:  Solving for Uy, Initial residual = 9.71365e-07, Final residual = 9.71365e-07, No Iterations 0
DILUPBiCG:  Solving for Uz, Initial residual = 2.40357e-06, Final residual = 2.40357e-06, No Iterations 0
DICPCG:  Solving for p, Initial residual = 0.0287465, Final residual = 0.00282264, No Iterations 300
DICPCG:  Solving for p, Initial residual = 0.00566485, Final residual = 0.000551172, No Iterations 8
DICPCG:  Solving for p, Initial residual = 0.00086027, Final residual = 8.55475e-05, No Iterations 53
time step continuity errors : sum local = 0.00391173, global = -3.4283e-05, cumulative = -0.0020729
DILUPBiCG:  Solving for epsilon, Initial residual = 0.00859816, Final residual = 4.57854e-07, No Iterations 4
DILUPBiCG:  Solving for k, Initial residual = 0.0357501, Final residual = 9.28085e-07, No Iterations 5
ExecutionTime = 57.72 s  ClockTime = 58 s

Time = 17

DILUPBiCG:  Solving for Ux, Initial residual = 2.51106e-06, Final residual = 2.51106e-06, No Iterations 0
DILUPBiCG:  Solving for Uy, Initial residual = 5.00539e-07, Final residual = 5.00539e-07, No Iterations 0
DILUPBiCG:  Solving for Uz, Initial residual = 2.47834e-06, Final residual = 2.47834e-06, No Iterations 0
DICPCG:  Solving for p, Initial residual = 0.0608931, Final residual = 0.00578642, No Iterations 294
DICPCG:  Solving for p, Initial residual = 0.00374945, Final residual = 0.000369263, No Iterations 8
DICPCG:  Solving for p, Initial residual = 0.000584733, Final residual = 5.82647e-05, No Iterations 52
time step continuity errors : sum local = 0.00257554, global = -2.92958e-05, cumulative = -0.0021022
DILUPBiCG:  Solving for epsilon, Initial residual = 0.00848861, Final residual = 4.23838e-07, No Iterations 4
DILUPBiCG:  Solving for k, Initial residual = 0.0338293, Final residual = 5.86435e-07, No Iterations 5
ExecutionTime = 61.15 s  ClockTime = 61 s

Time = 18

DILUPBiCG:  Solving for Ux, Initial residual = 2.33758e-06, Final residual = 2.33758e-06, No Iterations 0
DILUPBiCG:  Solving for Uy, Initial residual = 8.81638e-07, Final residual = 8.81638e-07, No Iterations 0
DILUPBiCG:  Solving for Uz, Initial residual = 2.54514e-06, Final residual = 2.54514e-06, No Iterations 0
DICPCG:  Solving for p, Initial residual = 0.0216805, Final residual = 0.00212728, No Iterations 50
DICPCG:  Solving for p, Initial residual = 0.00569694, Final residual = 0.000502204, No Iterations 270
DICPCG:  Solving for p, Initial residual = 0.0017987, Final residual = 0.000165582, No Iterations 4
time step continuity errors : sum local = 0.00518806, global = 2.99011e-05, cumulative = -0.0020723
DILUPBiCG:  Solving for epsilon, Initial residual = 0.00832624, Final residual = 4.06444e-07, No Iterations 4
DILUPBiCG:  Solving for k, Initial residual = 0.0320724, Final residual = 4.46593e-07, No Iterations 5
ExecutionTime = 64.36 s  ClockTime = 64 s

Time = 19

DILUPBiCG:  Solving for Ux, Initial residual = 1.95923e-06, Final residual = 1.95923e-06, No Iterations 0
DILUPBiCG:  Solving for Uy, Initial residual = 1.04904e-06, Final residual = 1.04904e-06, No Iterations 0
DILUPBiCG:  Solving for Uz, Initial residual = 2.39874e-06, Final residual = 2.39874e-06, No Iterations 0
DICPCG:  Solving for p, Initial residual = 0.0167665, Final residual = 0.00166626, No Iterations 91
DICPCG:  Solving for p, Initial residual = 0.00572972, Final residual = 0.000559679, No Iterations 260
DICPCG:  Solving for p, Initial residual = 0.00288519, Final residual = 0.000281501, No Iterations 34
time step continuity errors : sum local = 0.00407538, global = -5.9286e-05, cumulative = -0.00213159
DILUPBiCG:  Solving for epsilon, Initial residual = 0.00816847, Final residual = 6.08538e-06, No Iterations 3
DILUPBiCG:  Solving for k, Initial residual = 0.0305234, Final residual = 3.78149e-07, No Iterations 5
ExecutionTime = 67.99 s  ClockTime = 68 s

Time = 20

DILUPBiCG:  Solving for Ux, Initial residual = 1.71237e-06, Final residual = 1.71237e-06, No Iterations 0
DILUPBiCG:  Solving for Uy, Initial residual = 9.24356e-07, Final residual = 9.24356e-07, No Iterations 0
DILUPBiCG:  Solving for Uz, Initial residual = 2.1926e-06, Final residual = 2.1926e-06, No Iterations 0
DICPCG:  Solving for p, Initial residual = 0.0153908, Final residual = 0.00151937, No Iterations 293
DICPCG:  Solving for p, Initial residual = 0.0307106, Final residual = 0.00296357, No Iterations 22
DICPCG:  Solving for p, Initial residual = 0.00563242, Final residual = 0.000540614, No Iterations 42
time step continuity errors : sum local = 0.00229831, global = 2.13822e-05, cumulative = -0.0021102
DILUPBiCG:  Solving for epsilon, Initial residual = 0.00804154, Final residual = 4.32546e-06, No Iterations 3
DILUPBiCG:  Solving for k, Initial residual = 0.0291839, Final residual = 3.36163e-07, No Iterations 5
ExecutionTime = 71.4 s  ClockTime = 71 s

forces porousforces write:
    sum of forces:
        pressure : (0 0 0)
        viscous  : (0 0 0)
        porous   : (84218.9 -6.47193e-13 72153.7)
    sum of moments:
        pressure : (0 0 0)
        viscous  : (0 0 0)
        porous   : (64566.1 6536.3 -72997.5)

volFieldValue volFieldValue_0 write:
    volIntegrate(cz_solid_0) of U = (1.84469e-09 -6.75775e-09 -4.39743e-09)

surfaceFieldValue massFlowAtFilter_0 write:
    sum(fz_solid_0) of phi = 7.12933e-05

volFieldValue volFieldValue_1 write:
    volIntegrate(cz_solid_1) of U = (3.96743e-10 -5.84269e-09 -3.97532e-09)

surfaceFieldValue massFlowAtFilter_1 write:
    sum(fz_solid_1) of phi = 3.76657e-05

volFieldValue volFieldValue_2 write:
    volIntegrate(cz_solid_2) of U = (-7.47612e-10 -5.59894e-09 -3.33311e-09)

surfaceFieldValue massFlowAtFilter_2 write:
    sum(fz_solid_2) of phi = -6.3967e-05

volFieldValue volFieldValue_3 write:
    volIntegrate(cz_solid_3) of U = (-1.62523e-09 -5.2764e-09 -2.59782e-09)

surfaceFieldValue massFlowAtFilter_3 write:
    sum(fz_solid_3) of phi = 2.3165e-06

volFieldValue volFieldValue_4 write:
    volIntegrate(cz_solid_4) of U = (-2.39689e-09 -4.8808e-09 -1.71511e-09)

surfaceFieldValue massFlowAtFilter_4 write:
    sum(fz_solid_4) of phi = 3.33553e-06

volFieldValue volFieldValue_5 write:
    volIntegrate(cz_solid_5) of U = (-3.04685e-09 -4.93709e-09 -8.53183e-10)

surfaceFieldValue massFlowAtFilter_5 write:
    sum(fz_solid_5) of phi = -9.71434e-05

volFieldValue volFieldValue_6 write:
    volIntegrate(cz_solid_6) of U = (-3.6736e-09 -5.40674e-09 2.28807e-10)

surfaceFieldValue massFlowAtFilter_6 write:
    sum(fz_solid_6) of phi = -7.08532e-05

volFieldValue volFieldValue_7 write:
    volIntegrate(cz_solid_7) of U = (-4.01552e-09 -5.84327e-09 1.59377e-09)

surfaceFieldValue massFlowAtFilter_7 write:
    sum(fz_solid_7) of phi = 2.3326e-05

volFieldValue volFieldValue_8 write:
    volIntegrate(cz_solid_8) of U = (-3.9242e-09 -6.56977e-09 3.10639e-09)

surfaceFieldValue massFlowAtFilter_8 write:
    sum(fz_solid_8) of phi = -2.41223e-05

volFieldValue volFieldValue_9 write:
    volIntegrate(cz_solid_9) of U = (-3.21292e-09 -7.7234e-09 4.78494e-09)

surfaceFieldValue massFlowAtFilter_9 write:
    sum(fz_solid_9) of phi = -2.98928e-06

volFieldValue volFieldValue_10 write:
    volIntegrate(cz_solid_10) of U = (-1.82161e-09 -8.9756e-09 6.26253e-09)

surfaceFieldValue massFlowAtFilter_10 write:
    sum(fz_solid_10) of phi = -7.09006e-05

volFieldValue volFieldValue_11 write:
    volIntegrate(cz_solid_11) of U = (1.06876e-10 -1.07381e-08 7.33531e-09)

surfaceFieldValue massFlowAtFilter_11 write:
    sum(fz_solid_11) of phi = -1.15022e-06

volFieldValue volFieldValue_12 write:
    volIntegrate(cz_solid_12) of U = (2.63536e-09 -1.21811e-08 7.68177e-09)

surfaceFieldValue massFlowAtFilter_12 write:
    sum(fz_solid_12) of phi = 1.31622e-05

volFieldValue volFieldValue_13 write:
    volIntegrate(cz_solid_13) of U = (5.30496e-09 -1.34244e-08 7.02511e-09)

surfaceFieldValue massFlowAtFilter_13 write:
    sum(fz_solid_13) of phi = 9.63124e-05

volFieldValue volFieldValue_14 write:
    volIntegrate(cz_solid_14) of U = (7.47957e-09 -1.38534e-08 5.34817e-09)

surfaceFieldValue massFlowAtFilter_14 write:
    sum(fz_solid_14) of phi = 0.000150696

volFieldValue volFieldValue_15 write:
    volIntegrate(cz_solid_15) of U = (8.69628e-09 -1.34937e-08 2.70684e-09)

surfaceFieldValue massFlowAtFilter_15 write:
    sum(fz_solid_15) of phi = 0.000147725

volFieldValue volFieldValue_16 write:
    volIntegrate(cz_solid_16) of U = (8.55304e-09 -1.21195e-08 -2.51104e-11)

surfaceFieldValue massFlowAtFilter_16 write:
    sum(fz_solid_16) of phi = 5.28042e-05

volFieldValue volFieldValue_17 write:
    volIntegrate(cz_solid_17) of U = (7.33495e-09 -1.04115e-08 -2.30267e-09)

surfaceFieldValue massFlowAtFilter_17 write:
    sum(fz_solid_17) of phi = -2.31409e-05

volFieldValue volFieldValue_18 write:
    volIntegrate(cz_solid_18) of U = (5.57878e-09 -8.74741e-09 -3.75337e-09)

surfaceFieldValue massFlowAtFilter_18 write:
    sum(fz_solid_18) of phi = 9.35338e-05

volFieldValue volFieldValue_19 write:
    volIntegrate(cz_solid_19) of U = (3.61645e-09 -7.49807e-09 -4.3368e-09)

surfaceFieldValue massFlowAtFilter_19 write:
    sum(fz_solid_19) of phi = 1.5629e-05

volFieldValue volFieldValue_20 write:
    volIntegrate(cz_solid_20) of U = (1.4257e-09 -9.8337e-09 -2.83432e-09)

surfaceFieldValue massFlowAtFilter_20 write:
    sum(fz_solid_20) of phi = 2.74065e-05

volFieldValue volFieldValue_21 write:
    volIntegrate(cz_solid_21) of U = (3.83476e-10 -9.09847e-09 -2.60489e-09)

surfaceFieldValue massFlowAtFilter_21 write:
    sum(fz_solid_21) of phi = 2.71721e-05

volFieldValue volFieldValue_22 write:
    volIntegrate(cz_solid_22) of U = (-4.46818e-10 -8.9025e-09 -2.20104e-09)

surfaceFieldValue massFlowAtFilter_22 write:
    sum(fz_solid_22) of phi = -4.12187e-05

volFieldValue volFieldValue_23 write:
    volIntegrate(cz_solid_23) of U = (-1.07373e-09 -8.75898e-09 -1.698e-09)

surfaceFieldValue massFlowAtFilter_23 write:
    sum(fz_solid_23) of phi = 2.45229e-05

volFieldValue volFieldValue_24 write:
    volIntegrate(cz_solid_24) of U = (-1.60906e-09 -8.31084e-09 -1.07395e-09)

surfaceFieldValue massFlowAtFilter_24 write:
    sum(fz_solid_24) of phi = 1.25304e-05

volFieldValue volFieldValue_25 write:
    volIntegrate(cz_solid_25) of U = (-2.06132e-09 -8.0557e-09 -4.50487e-10)

surfaceFieldValue massFlowAtFilter_25 write:
    sum(fz_solid_25) of phi = 4.368e-06

volFieldValue volFieldValue_26 write:
    volIntegrate(cz_solid_26) of U = (-2.49342e-09 -8.53099e-09 3.0077e-10)

surfaceFieldValue massFlowAtFilter_26 write:
    sum(fz_solid_26) of phi = -1.07083e-06

volFieldValue volFieldValue_27 write:
    volIntegrate(cz_solid_27) of U = (-2.67366e-09 -8.58032e-09 1.27024e-09)

surfaceFieldValue massFlowAtFilter_27 write:
    sum(fz_solid_27) of phi = 3.4253e-05

volFieldValue volFieldValue_28 write:
    volIntegrate(cz_solid_28) of U = (-2.52582e-09 -9.10932e-09 2.30524e-09)

surfaceFieldValue massFlowAtFilter_28 write:
    sum(fz_solid_28) of phi = 4.42449e-05

volFieldValue volFieldValue_29 write:
    volIntegrate(cz_solid_29) of U = (-1.89629e-09 -9.64906e-09 3.38657e-09)

surfaceFieldValue massFlowAtFilter_29 write:
    sum(fz_solid_29) of phi = 1.68674e-05

volFieldValue volFieldValue_30 write:
    volIntegrate(cz_solid_30) of U = (-8.70561e-10 -1.0378e-08 4.22596e-09)

surfaceFieldValue massFlowAtFilter_30 write:
    sum(fz_solid_30) of phi = -1.01208e-05

volFieldValue volFieldValue_31 write:
    volIntegrate(cz_solid_31) of U = (4.49608e-10 -1.15574e-08 4.71453e-09)

surfaceFieldValue massFlowAtFilter_31 write:
    sum(fz_solid_31) of phi = -2.28442e-05

volFieldValue volFieldValue_32 write:
    volIntegrate(cz_solid_32) of U = (2.01262e-09 -1.23443e-08 4.7555e-09)

surfaceFieldValue massFlowAtFilter_32 write:
    sum(fz_solid_32) of phi = -1.02015e-05

volFieldValue volFieldValue_33 write:
    volIntegrate(cz_solid_33) of U = (3.60082e-09 -1.35696e-08 4.35405e-09)

surfaceFieldValue massFlowAtFilter_33 write:
    sum(fz_solid_33) of phi = 6.56998e-05

volFieldValue volFieldValue_34 write:
    volIntegrate(cz_solid_34) of U = (4.91651e-09 -1.4829e-08 3.53794e-09)

surfaceFieldValue massFlowAtFilter_34 write:
    sum(fz_solid_34) of phi = 5.04757e-05

volFieldValue volFieldValue_35 write:
    volIntegrate(cz_solid_35) of U = (5.78679e-09 -1.5093e-08 2.07782e-09)

surfaceFieldValue massFlowAtFilter_35 write:
    sum(fz_solid_35) of phi = 5.29959e-05

volFieldValue volFieldValue_36 write:
    volIntegrate(cz_solid_36) of U = (5.85399e-09 -1.43675e-08 4.70942e-10)

surfaceFieldValue massFlowAtFilter_36 write:
    sum(fz_solid_36) of phi = 3.59189e-05

volFieldValue volFieldValue_37 write:
    volIntegrate(cz_solid_37) of U = (5.20505e-09 -1.30832e-08 -1.06289e-09)

surfaceFieldValue massFlowAtFilter_37 write:
    sum(fz_solid_37) of phi = -4.91896e-06

volFieldValue volFieldValue_38 write:
    volIntegrate(cz_solid_38) of U = (4.10443e-09 -1.20827e-08 -2.18977e-09)

surfaceFieldValue massFlowAtFilter_38 write:
    sum(fz_solid_38) of phi = -1.73115e-05

volFieldValue volFieldValue_39 write:
    volIntegrate(cz_solid_39) of U = (2.70539e-09 -1.05089e-08 -2.70426e-09)

surfaceFieldValue massFlowAtFilter_39 write:
    sum(fz_solid_39) of phi = 3.1368e-05

volFieldValue volFieldValue_40 write:
    volIntegrate(cz_solid_40) of U = (7.57591e-10 -8.17131e-09 -1.00697e-09)

surfaceFieldValue massFlowAtFilter_40 write:
    sum(fz_solid_40) of phi = 2.88091e-05

volFieldValue volFieldValue_41 write:
    volIntegrate(cz_solid_41) of U = (2.66115e-10 -7.50563e-09 -9.78212e-10)

surfaceFieldValue massFlowAtFilter_41 write:
    sum(fz_solid_41) of phi = 1.15261e-05

volFieldValue volFieldValue_42 write:
    volIntegrate(cz_solid_42) of U = (-1.36118e-10 -7.38568e-09 -8.3212e-10)

surfaceFieldValue massFlowAtFilter_42 write:
    sum(fz_solid_42) of phi = 1.66244e-06

volFieldValue volFieldValue_43 write:
    volIntegrate(cz_solid_43) of U = (-4.4789e-10 -7.08973e-09 -6.08439e-10)

surfaceFieldValue massFlowAtFilter_43 write:
    sum(fz_solid_43) of phi = 1.63406e-05

volFieldValue volFieldValue_44 write:
    volIntegrate(cz_solid_44) of U = (-7.37497e-10 -6.64777e-09 -3.30085e-10)

surfaceFieldValue massFlowAtFilter_44 write:
    sum(fz_solid_44) of phi = 3.41481e-06

volFieldValue volFieldValue_45 write:
    volIntegrate(cz_solid_45) of U = (-1.02481e-09 -6.50937e-09 -2.0375e-11)

surfaceFieldValue massFlowAtFilter_45 write:
    sum(fz_solid_45) of phi = 3.90159e-06

volFieldValue volFieldValue_46 write:
    volIntegrate(cz_solid_46) of U = (-1.3075e-09 -6.68094e-09 3.65407e-10)

surfaceFieldValue massFlowAtFilter_46 write:
    sum(fz_solid_46) of phi = -1.2435e-05

volFieldValue volFieldValue_47 write:
    volIntegrate(cz_solid_47) of U = (-1.43088e-09 -6.7086e-09 9.59977e-10)

surfaceFieldValue massFlowAtFilter_47 write:
    sum(fz_solid_47) of phi = 3.20181e-05

volFieldValue volFieldValue_48 write:
    volIntegrate(cz_solid_48) of U = (-1.33102e-09 -6.91954e-09 1.61345e-09)

surfaceFieldValue massFlowAtFilter_48 write:
    sum(fz_solid_48) of phi = -7.36439e-06

volFieldValue volFieldValue_49 write:
    volIntegrate(cz_solid_49) of U = (-8.96633e-10 -7.27937e-09 2.31368e-09)

surfaceFieldValue massFlowAtFilter_49 write:
    sum(fz_solid_49) of phi = -7.08781e-06

volFieldValue volFieldValue_50 write:
    volIntegrate(cz_solid_50) of U = (-1.59309e-10 -7.83695e-09 2.88121e-09)

surfaceFieldValue massFlowAtFilter_50 write:
    sum(fz_solid_50) of phi = 8.60792e-06

volFieldValue volFieldValue_51 write:
    volIntegrate(cz_solid_51) of U = (7.54765e-10 -8.82109e-09 3.19846e-09)

surfaceFieldValue massFlowAtFilter_51 write:
    sum(fz_solid_51) of phi = -6.19787e-06

volFieldValue volFieldValue_52 write:
    volIntegrate(cz_solid_52) of U = (1.90208e-09 -9.80804e-09 3.25604e-09)

surfaceFieldValue massFlowAtFilter_52 write:
    sum(fz_solid_52) of phi = 2.65759e-06

volFieldValue volFieldValue_53 write:
    volIntegrate(cz_solid_53) of U = (3.13033e-09 -1.15494e-08 3.09705e-09)

surfaceFieldValue massFlowAtFilter_53 write:
    sum(fz_solid_53) of phi = 1.65717e-05

volFieldValue volFieldValue_54 write:
    volIntegrate(cz_solid_54) of U = (4.24779e-09 -1.41574e-08 2.80258e-09)

surfaceFieldValue massFlowAtFilter_54 write:
    sum(fz_solid_54) of phi = 4.00581e-05

volFieldValue volFieldValue_55 write:
    volIntegrate(cz_solid_55) of U = (4.99372e-09 -1.58259e-08 2.08333e-09)

surfaceFieldValue massFlowAtFilter_55 write:
    sum(fz_solid_55) of phi = 2.77103e-05

volFieldValue volFieldValue_56 write:
    volIntegrate(cz_solid_56) of U = (4.61692e-09 -1.56269e-08 1.40536e-09)

surfaceFieldValue massFlowAtFilter_56 write:
    sum(fz_solid_56) of phi = -1.57551e-05

volFieldValue volFieldValue_57 write:
    volIntegrate(cz_solid_57) of U = (3.35385e-09 -1.28782e-08 5.77636e-10)

surfaceFieldValue massFlowAtFilter_57 write:
    sum(fz_solid_57) of phi = 3.33426e-06

volFieldValue volFieldValue_58 write:
    volIntegrate(cz_solid_58) of U = (2.20734e-09 -1.02897e-08 -4.24377e-10)

surfaceFieldValue massFlowAtFilter_58 write:
    sum(fz_solid_58) of phi = 5.0313e-07

volFieldValue volFieldValue_59 write:
    volIntegrate(cz_solid_59) of U = (1.39876e-09 -8.59041e-09 -8.24682e-10)

surfaceFieldValue massFlowAtFilter_59 write:
    sum(fz_solid_59) of phi = 4.34351e-06

volFieldValue volFieldValue_60 write:
    volIntegrate(cz_solid_60) of U = (-1.56703e-10 -6.00501e-09 5.94124e-10)

surfaceFieldValue massFlowAtFilter_60 write:
    sum(fz_solid_60) of phi = -3.99177e-06

volFieldValue volFieldValue_61 write:
    volIntegrate(cz_solid_61) of U = (-2.2389e-12 -5.3659e-09 3.4248e-10)

surfaceFieldValue massFlowAtFilter_61 write:
    sum(fz_solid_61) of phi = -9.96114e-06

volFieldValue volFieldValue_62 write:
    volIntegrate(cz_solid_62) of U = (-8.24026e-12 -5.12491e-09 1.86272e-10)

surfaceFieldValue massFlowAtFilter_62 write:
    sum(fz_solid_62) of phi = -7.13137e-06

volFieldValue volFieldValue_63 write:
    volIntegrate(cz_solid_63) of U = (-1.26589e-10 -4.85397e-09 1.54204e-10)

surfaceFieldValue massFlowAtFilter_63 write:
    sum(fz_solid_63) of phi = -1.31043e-05

volFieldValue volFieldValue_64 write:
    volIntegrate(cz_solid_64) of U = (-2.79335e-10 -4.48905e-09 1.51217e-10)

surfaceFieldValue massFlowAtFilter_64 write:
    sum(fz_solid_64) of phi = -1.91287e-05

volFieldValue volFieldValue_65 write:
    volIntegrate(cz_solid_65) of U = (-4.98992e-10 -4.36092e-09 2.49858e-10)

surfaceFieldValue massFlowAtFilter_65 write:
    sum(fz_solid_65) of phi = -2.25511e-05

volFieldValue volFieldValue_66 write:
    volIntegrate(cz_solid_66) of U = (-7.28318e-10 -4.5214e-09 4.29633e-10)

surfaceFieldValue massFlowAtFilter_66 write:
    sum(fz_solid_66) of phi = -1.83754e-05

volFieldValue volFieldValue_67 write:
    volIntegrate(cz_solid_67) of U = (-8.3555e-10 -4.49429e-09 8.48911e-10)

surfaceFieldValue massFlowAtFilter_67 write:
    sum(fz_solid_67) of phi = -1.31778e-05

volFieldValue volFieldValue_68 write:
    volIntegrate(cz_solid_68) of U = (-7.63846e-10 -4.67059e-09 1.33718e-09)

surfaceFieldValue massFlowAtFilter_68 write:
    sum(fz_solid_68) of phi = -1.90546e-05

volFieldValue volFieldValue_69 write:
    volIntegrate(cz_solid_69) of U = (-3.98621e-10 -5.01584e-09 1.9221e-09)

surfaceFieldValue massFlowAtFilter_69 write:
    sum(fz_solid_69) of phi = -1.50911e-05

volFieldValue volFieldValue_70 write:
    volIntegrate(cz_solid_70) of U = (2.60573e-10 -5.54486e-09 2.4337e-09)

surfaceFieldValue massFlowAtFilter_70 write:
    sum(fz_solid_70) of phi = -2.66757e-05

volFieldValue volFieldValue_71 write:
    volIntegrate(cz_solid_71) of U = (1.1295e-09 -6.47975e-09 2.7707e-09)

surfaceFieldValue massFlowAtFilter_71 write:
    sum(fz_solid_71) of phi = -1.76069e-05

volFieldValue volFieldValue_72 write:
    volIntegrate(cz_solid_72) of U = (2.38794e-09 -7.76825e-09 2.93297e-09)

surfaceFieldValue massFlowAtFilter_72 write:
    sum(fz_solid_72) of phi = -3.49233e-05

volFieldValue volFieldValue_73 write:
    volIntegrate(cz_solid_73) of U = (4.06683e-09 -1.03345e-08 2.92906e-09)

surfaceFieldValue massFlowAtFilter_73 write:
    sum(fz_solid_73) of phi = -2.04707e-06

volFieldValue volFieldValue_74 write:
    volIntegrate(cz_solid_74) of U = (6.15843e-09 -1.48385e-08 2.81431e-09)

surfaceFieldValue massFlowAtFilter_74 write:
    sum(fz_solid_74) of phi = 5.28641e-05

volFieldValue volFieldValue_75 write:
    volIntegrate(cz_solid_75) of U = (8.69581e-09 -2.16064e-08 1.83422e-09)

surfaceFieldValue massFlowAtFilter_75 write:
    sum(fz_solid_75) of phi = 7.44913e-05

volFieldValue volFieldValue_76 write:
    volIntegrate(cz_solid_76) of U = (9.33263e-09 -3.29534e-08 1.4625e-09)

surfaceFieldValue massFlowAtFilter_76 write:
    sum(fz_solid_76) of phi = -3.983e-06

volFieldValue volFieldValue_77 write:
    volIntegrate(cz_solid_77) of U = (2.83724e-09 -2.89243e-08 7.81334e-09)

surfaceFieldValue massFlowAtFilter_77 write:
    sum(fz_solid_77) of phi = 5.50655e-05

volFieldValue volFieldValue_78 write:
    volIntegrate(cz_solid_78) of U = (-2.69624e-09 -9.76014e-09 1.59252e-09)

surfaceFieldValue massFlowAtFilter_78 write:
    sum(fz_solid_78) of phi = -3.97242e-05

volFieldValue volFieldValue_79 write:
    volIntegrate(cz_solid_79) of U = (-6.84894e-10 -6.38045e-09 9.40026e-10)

surfaceFieldValue massFlowAtFilter_79 write:
    sum(fz_solid_79) of phi = -2.35899e-05

volFieldValue volFieldValue_80 write:
    volIntegrate(cz_solid_80) of U = (-8.26023e-10 -2.80277e-09 1.54382e-09)

surfaceFieldValue massFlowAtFilter_80 write:
    sum(fz_solid_80) of phi = -3.10501e-05

volFieldValue volFieldValue_81 write:
    volIntegrate(cz_solid_81) of U = (-2.6506e-10 -2.47182e-09 1.07613e-09)

surfaceFieldValue massFlowAtFilter_81 write:
    sum(fz_solid_81) of phi = -2.33309e-05

volFieldValue volFieldValue_82 write:
    volIntegrate(cz_solid_82) of U = (-2.09656e-11 -2.25219e-09 7.04183e-10)

surfaceFieldValue massFlowAtFilter_82 write:
    sum(fz_solid_82) of phi = -2.2771e-06

volFieldValue volFieldValue_83 write:
    volIntegrate(cz_solid_83) of U = (-4.61277e-11 -2.03565e-09 5.23135e-10)

surfaceFieldValue massFlowAtFilter_83 write:
    sum(fz_solid_83) of phi = -7.22765e-06

volFieldValue volFieldValue_84 write:
    volIntegrate(cz_solid_84) of U = (-1.3554e-10 -1.78515e-09 3.7998e-10)

surfaceFieldValue massFlowAtFilter_84 write:
    sum(fz_solid_84) of phi = -1.58974e-05

volFieldValue volFieldValue_85 write:
    volIntegrate(cz_solid_85) of U = (-3.20648e-10 -1.66241e-09 3.93325e-10)

surfaceFieldValue massFlowAtFilter_85 write:
    sum(fz_solid_85) of phi = -2.69814e-05

volFieldValue volFieldValue_86 write:
    volIntegrate(cz_solid_86) of U = (-5.06911e-10 -1.69158e-09 5.0853e-10)

surfaceFieldValue massFlowAtFilter_86 write:
    sum(fz_solid_86) of phi = -1.20594e-05

volFieldValue volFieldValue_87 write:
    volIntegrate(cz_solid_87) of U = (-5.80157e-10 -1.68456e-09 8.52587e-10)

surfaceFieldValue massFlowAtFilter_87 write:
    sum(fz_solid_87) of phi = 1.29643e-05

volFieldValue volFieldValue_88 write:
    volIntegrate(cz_solid_88) of U = (-4.90746e-10 -1.80436e-09 1.28498e-09)

surfaceFieldValue massFlowAtFilter_88 write:
    sum(fz_solid_88) of phi = -2.01974e-05

volFieldValue volFieldValue_89 write:
    volIntegrate(cz_solid_89) of U = (-1.3838e-10 -2.01727e-09 1.81404e-09)

surfaceFieldValue massFlowAtFilter_89 write:
    sum(fz_solid_89) of phi = 3.6063e-06

volFieldValue volFieldValue_90 write:
    volIntegrate(cz_solid_90) of U = (5.2797e-10 -2.20702e-09 2.31038e-09)

surfaceFieldValue massFlowAtFilter_90 write:
    sum(fz_solid_90) of phi = -1.58289e-05

volFieldValue volFieldValue_91 write:
    volIntegrate(cz_solid_91) of U = (1.47215e-09 -2.595e-09 2.6564e-09)

surfaceFieldValue massFlowAtFilter_91 write:
    sum(fz_solid_91) of phi = 6.31831e-06

volFieldValue volFieldValue_92 write:
    volIntegrate(cz_solid_92) of U = (2.97716e-09 -3.2604e-09 2.7605e-09)

surfaceFieldValue massFlowAtFilter_92 write:
    sum(fz_solid_92) of phi = -1.19929e-05

volFieldValue volFieldValue_93 write:
    volIntegrate(cz_solid_93) of U = (5.13602e-09 -4.63741e-09 2.56e-09)

surfaceFieldValue massFlowAtFilter_93 write:
    sum(fz_solid_93) of phi = 3.48615e-05

volFieldValue volFieldValue_94 write:
    volIntegrate(cz_solid_94) of U = (8.16005e-09 -6.70411e-09 2.18381e-09)

surfaceFieldValue massFlowAtFilter_94 write:
    sum(fz_solid_94) of phi = 0.000162411

volFieldValue volFieldValue_95 write:
[...]
    volIntegrate(cz_solid_71) of U = (8.36525e-10 -1.28153e-07 -1.09188e-09)

surfaceFieldValue massFlowAtFilter_71 write:
    sum(fz_solid_71) of phi = -4.59652e-05

volFieldValue volFieldValue_72 write:
    volIntegrate(cz_solid_72) of U = (-7.44922e-11 -8.54312e-08 -8.41288e-10)

surfaceFieldValue massFlowAtFilter_72 write:
    sum(fz_solid_72) of phi = 5.26296e-05

volFieldValue volFieldValue_73 write:
    volIntegrate(cz_solid_73) of U = (-7.4795e-10 1.23509e-08 -8.05624e-10)

surfaceFieldValue massFlowAtFilter_73 write:
    sum(fz_solid_73) of phi = -4.26905e-05

volFieldValue volFieldValue_74 write:
    volIntegrate(cz_solid_74) of U = (-1.13051e-09 9.54559e-08 -7.37654e-10)

surfaceFieldValue massFlowAtFilter_74 write:
    sum(fz_solid_74) of phi = -3.32446e-05

volFieldValue volFieldValue_75 write:
    volIntegrate(cz_solid_75) of U = (-1.19048e-09 1.26332e-07 -7.32307e-10)

surfaceFieldValue massFlowAtFilter_75 write:
    sum(fz_solid_75) of phi = -9.65622e-05

volFieldValue volFieldValue_76 write:
    volIntegrate(cz_solid_76) of U = (-1.02078e-09 7.57917e-08 -6.06389e-10)

surfaceFieldValue massFlowAtFilter_76 write:
    sum(fz_solid_76) of phi = -1.11641e-05

volFieldValue volFieldValue_77 write:
    volIntegrate(cz_solid_77) of U = (-8.37363e-10 5.80363e-08 -1.79165e-10)

surfaceFieldValue massFlowAtFilter_77 write:
    sum(fz_solid_77) of phi = 2.08774e-05

volFieldValue volFieldValue_78 write:
    volIntegrate(cz_solid_78) of U = (-7.36135e-10 7.05173e-08 2.66549e-10)

surfaceFieldValue massFlowAtFilter_78 write:
    sum(fz_solid_78) of phi = -0.000239999

volFieldValue volFieldValue_79 write:
    volIntegrate(cz_solid_79) of U = (-6.36125e-10 4.06275e-08 6.15212e-10)

surfaceFieldValue massFlowAtFilter_79 write:
    sum(fz_solid_79) of phi = -6.40403e-05

volFieldValue volFieldValue_80 write:
    volIntegrate(cz_solid_80) of U = (-7.28193e-10 -2.313e-09 6.06732e-10)

surfaceFieldValue massFlowAtFilter_80 write:
    sum(fz_solid_80) of phi = -9.5525e-06

volFieldValue volFieldValue_81 write:
    volIntegrate(cz_solid_81) of U = (-7.50316e-10 -2.13205e-08 7.85526e-10)

surfaceFieldValue massFlowAtFilter_81 write:
    sum(fz_solid_81) of phi = -1.76264e-05

volFieldValue volFieldValue_82 write:
    volIntegrate(cz_solid_82) of U = (-1.49506e-09 -3.03009e-08 1.35336e-09)

surfaceFieldValue massFlowAtFilter_82 write:
    sum(fz_solid_82) of phi = -2.24371e-05

volFieldValue volFieldValue_83 write:
    volIntegrate(cz_solid_83) of U = (-2.60962e-09 -3.75001e-08 3.44215e-09)

surfaceFieldValue massFlowAtFilter_83 write:
    sum(fz_solid_83) of phi = 0.000547121

volFieldValue volFieldValue_84 write:
    volIntegrate(cz_solid_84) of U = (-1.55586e-09 -3.70678e-08 8.11285e-09)

surfaceFieldValue massFlowAtFilter_84 write:
    sum(fz_solid_84) of phi = 0.00082697

volFieldValue volFieldValue_85 write:
    volIntegrate(cz_solid_85) of U = (3.18295e-09 -3.5523e-08 1.00152e-08)

surfaceFieldValue massFlowAtFilter_85 write:
    sum(fz_solid_85) of phi = 4.15168e-05

volFieldValue volFieldValue_86 write:
    volIntegrate(cz_solid_86) of U = (4.58209e-09 -1.94182e-08 6.54838e-09)

surfaceFieldValue massFlowAtFilter_86 write:
    sum(fz_solid_86) of phi = -0.00106824

volFieldValue volFieldValue_87 write:
    volIntegrate(cz_solid_87) of U = (4.48113e-09 -8.87929e-09 6.27718e-09)

surfaceFieldValue massFlowAtFilter_87 write:
    sum(fz_solid_87) of phi = 0.00212417

volFieldValue volFieldValue_88 write:
    volIntegrate(cz_solid_88) of U = (7.89296e-09 -4.18274e-09 4.47763e-09)

surfaceFieldValue massFlowAtFilter_88 write:
    sum(fz_solid_88) of phi = -0.000503816

volFieldValue volFieldValue_89 write:
    volIntegrate(cz_solid_89) of U = (7.58339e-09 -2.16685e-08 -4.14354e-10)

surfaceFieldValue massFlowAtFilter_89 write:
    sum(fz_solid_89) of phi = 6.2662e-06

volFieldValue volFieldValue_90 write:
    volIntegrate(cz_solid_90) of U = (2.93315e-09 -2.32101e-08 -2.61798e-09)

surfaceFieldValue massFlowAtFilter_90 write:
    sum(fz_solid_90) of phi = -0.000734579

volFieldValue volFieldValue_91 write:
    volIntegrate(cz_solid_91) of U = (1.3108e-09 -6.2078e-08 -1.40354e-09)

surfaceFieldValue massFlowAtFilter_91 write:
    sum(fz_solid_91) of phi = -3.81827e-05

volFieldValue volFieldValue_92 write:
    volIntegrate(cz_solid_92) of U = (7.53581e-10 -7.52444e-08 -1.54411e-09)

surfaceFieldValue massFlowAtFilter_92 write:
    sum(fz_solid_92) of phi = 3.01371e-06

volFieldValue volFieldValue_93 write:
    volIntegrate(cz_solid_93) of U = (-7.08872e-10 -6.60792e-08 -2.51832e-09)

surfaceFieldValue massFlowAtFilter_93 write:
    sum(fz_solid_93) of phi = -0.00017692

volFieldValue volFieldValue_94 write:
    volIntegrate(cz_solid_94) of U = (-2.78013e-09 -1.83509e-08 -1.59746e-09)

surfaceFieldValue massFlowAtFilter_94 write:
    sum(fz_solid_94) of phi = 0.000375651

volFieldValue volFieldValue_95 write:
    volIntegrate(cz_solid_95) of U = (-2.11033e-09 3.21697e-08 -1.00561e-09)

surfaceFieldValue massFlowAtFilter_95 write:
    sum(fz_solid_95) of phi = -5.20278e-05

volFieldValue volFieldValue_96 write:
    volIntegrate(cz_solid_96) of U = (-1.17247e-09 5.43219e-08 -8.69536e-10)

surfaceFieldValue massFlowAtFilter_96 write:
    sum(fz_solid_96) of phi = 0.000143948

volFieldValue volFieldValue_97 write:
    volIntegrate(cz_solid_97) of U = (-6.68572e-10 6.65304e-08 -1.1977e-10)

surfaceFieldValue massFlowAtFilter_97 write:
    sum(fz_solid_97) of phi = 0.000174652

volFieldValue volFieldValue_98 write:
    volIntegrate(cz_solid_98) of U = (-6.64101e-10 4.66907e-08 2.07178e-10)

surfaceFieldValue massFlowAtFilter_98 write:
    sum(fz_solid_98) of phi = -0.000126824

volFieldValue volFieldValue_99 write:
    volIntegrate(cz_solid_99) of U = (-6.60419e-10 2.4963e-08 4.23833e-10)

surfaceFieldValue massFlowAtFilter_99 write:
    sum(fz_solid_99) of phi = 1.71202e-05

Time = 901

DILUPBiCG:  Solving for Ux, Initial residual = 1.49712e-07, Final residual = 1.49712e-07, No Iterations 0
DILUPBiCG:  Solving for Uy, Initial residual = 1.24931e-07, Final residual = 1.24931e-07, No Iterations 0
DILUPBiCG:  Solving for Uz, Initial residual = 4.89108e-07, Final residual = 4.89108e-07, No Iterations 0
DICPCG:  Solving for p, Initial residual = 0.00100648, Final residual = 9.62047e-05, No Iterations 18
DICPCG:  Solving for p, Initial residual = 0.000239414, Final residual = 2.27029e-05, No Iterations 23
DICPCG:  Solving for p, Initial residual = 5.22362e-05, Final residual = 9.04969e-06, No Iterations 44
time step continuity errors : sum local = 8.48982e-05, global = -7.54039e-06, cumulative = -0.00378587
DILUPBiCG:  Solving for epsilon, Initial residual = 0.000791194, Final residual = 4.87837e-07, No Iterations 3
DILUPBiCG:  Solving for k, Initial residual = 0.000921081, Final residual = 4.5016e-07, No Iterations 3
ExecutionTime = 1846.75 s  ClockTime = 1921 s

Time = 902

DILUPBiCG:  Solving for Ux, Initial residual = 1.49568e-07, Final residual = 1.49568e-07, No Iterations 0
DILUPBiCG:  Solving for Uy, Initial residual = 1.24874e-07, Final residual = 1.24874e-07, No Iterations 0
DILUPBiCG:  Solving for Uz, Initial residual = 4.87908e-07, Final residual = 4.87908e-07, No Iterations 0
DICPCG:  Solving for p, Initial residual = 0.00100724, Final residual = 9.579e-05, No Iterations 18
DICPCG:  Solving for p, Initial residual = 0.000239259, Final residual = 2.19827e-05, No Iterations 23
DICPCG:  Solving for p, Initial residual = 5.16754e-05, Final residual = 9.79943e-06, No Iterations 43
time step continuity errors : sum local = 9.18831e-05, global = -8.8801e-06, cumulative = -0.00379475
DILUPBiCG:  Solving for epsilon, Initial residual = 0.000789968, Final residual = 4.86787e-07, No Iterations 3
DILUPBiCG:  Solving for k, Initial residual = 0.000918367, Final residual = 4.51926e-07, No Iterations 3
ExecutionTime = 1848.24 s  ClockTime = 1923 s

Time = 903

DILUPBiCG:  Solving for Ux, Initial residual = 1.49426e-07, Final residual = 1.49426e-07, No Iterations 0
DILUPBiCG:  Solving for Uy, Initial residual = 1.24819e-07, Final residual = 1.24819e-07, No Iterations 0
DILUPBiCG:  Solving for Uz, Initial residual = 4.86674e-07, Final residual = 4.86674e-07, No Iterations 0
DICPCG:  Solving for p, Initial residual = 0.0010055, Final residual = 9.48244e-05, No Iterations 18
DICPCG:  Solving for p, Initial residual = 0.00023792, Final residual = 2.33816e-05, No Iterations 22
DICPCG:  Solving for p, Initial residual = 5.2664e-05, Final residual = 9.37832e-06, No Iterations 42
time step continuity errors : sum local = 8.78923e-05, global = -1.04783e-05, cumulative = -0.00380523
DILUPBiCG:  Solving for epsilon, Initial residual = 0.000788734, Final residual = 4.86657e-07, No Iterations 3
DILUPBiCG:  Solving for k, Initial residual = 0.000915662, Final residual = 4.53692e-07, No Iterations 3
ExecutionTime = 1849.72 s  ClockTime = 1924 s

Time = 904

DILUPBiCG:  Solving for Ux, Initial residual = 1.49291e-07, Final residual = 1.49291e-07, No Iterations 0
DILUPBiCG:  Solving for Uy, Initial residual = 1.24767e-07, Final residual = 1.24767e-07, No Iterations 0
DILUPBiCG:  Solving for Uz, Initial residual = 4.85421e-07, Final residual = 4.85421e-07, No Iterations 0
DICPCG:  Solving for p, Initial residual = 0.00100793, Final residual = 9.42028e-05, No Iterations 18
DICPCG:  Solving for p, Initial residual = 0.000237925, Final residual = 2.29995e-05, No Iterations 22
DICPCG:  Solving for p, Initial residual = 5.24171e-05, Final residual = 9.04891e-06, No Iterations 42
time step continuity errors : sum local = 8.47668e-05, global = -1.20394e-05, cumulative = -0.00381727
DILUPBiCG:  Solving for epsilon, Initial residual = 0.000787595, Final residual = 4.86035e-07, No Iterations 3
DILUPBiCG:  Solving for k, Initial residual = 0.000912979, Final residual = 4.55391e-07, No Iterations 3
ExecutionTime = 1851.2 s  ClockTime = 1926 s

Time = 905

DILUPBiCG:  Solving for Ux, Initial residual = 1.49164e-07, Final residual = 1.49164e-07, No Iterations 0
DILUPBiCG:  Solving for Uy, Initial residual = 1.24718e-07, Final residual = 1.24718e-07, No Iterations 0
DILUPBiCG:  Solving for Uz, Initial residual = 4.8416e-07, Final residual = 4.8416e-07, No Iterations 0
DICPCG:  Solving for p, Initial residual = 0.00100695, Final residual = 9.36233e-05, No Iterations 18
DICPCG:  Solving for p, Initial residual = 0.000238012, Final residual = 2.26348e-05, No Iterations 22
DICPCG:  Solving for p, Initial residual = 5.21578e-05, Final residual = 9.93006e-06, No Iterations 36
time step continuity errors : sum local = 9.29751e-05, global = -1.4652e-05, cumulative = -0.00383192
DILUPBiCG:  Solving for epsilon, Initial residual = 0.000786408, Final residual = 4.85193e-07, No Iterations 3
DILUPBiCG:  Solving for k, Initial residual = 0.00091032, Final residual = 4.57144e-07, No Iterations 3
ExecutionTime = 1852.63 s  ClockTime = 1927 s

Time = 906

DILUPBiCG:  Solving for Ux, Initial residual = 1.49035e-07, Final residual = 1.49035e-07, No Iterations 0
DILUPBiCG:  Solving for Uy, Initial residual = 1.24672e-07, Final residual = 1.24672e-07, No Iterations 0
DILUPBiCG:  Solving for Uz, Initial residual = 4.8286e-07, Final residual = 4.8286e-07, No Iterations 0
DICPCG:  Solving for p, Initial residual = 0.00100111, Final residual = 9.35621e-05, No Iterations 18
DICPCG:  Solving for p, Initial residual = 0.000237229, Final residual = 2.27333e-05, No Iterations 22
DICPCG:  Solving for p, Initial residual = 5.20492e-05, Final residual = 9.87695e-06, No Iterations 41
time step continuity errors : sum local = 9.24334e-05, global = -1.56234e-05, cumulative = -0.00384755
DILUPBiCG:  Solving for epsilon, Initial residual = 0.000785233, Final residual = 4.84639e-07, No Iterations 3
DILUPBiCG:  Solving for k, Initial residual = 0.000907694, Final residual = 4.58714e-07, No Iterations 3
ExecutionTime = 1854.11 s  ClockTime = 1929 s

Time = 907

DILUPBiCG:  Solving for Ux, Initial residual = 1.48924e-07, Final residual = 1.48924e-07, No Iterations 0
DILUPBiCG:  Solving for Uy, Initial residual = 1.24626e-07, Final residual = 1.24626e-07, No Iterations 0
DILUPBiCG:  Solving for Uz, Initial residual = 4.81574e-07, Final residual = 4.81574e-07, No Iterations 0
DICPCG:  Solving for p, Initial residual = 0.00100664, Final residual = 9.33521e-05, No Iterations 18
DICPCG:  Solving for p, Initial residual = 0.000237972, Final residual = 2.22786e-05, No Iterations 22
DICPCG:  Solving for p, Initial residual = 5.17693e-05, Final residual = 9.86173e-06, No Iterations 41
time step continuity errors : sum local = 9.22481e-05, global = -1.74755e-05, cumulative = -0.00386502
DILUPBiCG:  Solving for epsilon, Initial residual = 0.00078412, Final residual = 4.84283e-07, No Iterations 3
DILUPBiCG:  Solving for k, Initial residual = 0.000905099, Final residual = 4.60301e-07, No Iterations 3
ExecutionTime = 1855.55 s  ClockTime = 1930 s

Time = 908

DILUPBiCG:  Solving for Ux, Initial residual = 1.48823e-07, Final residual = 1.48823e-07, No Iterations 0
DILUPBiCG:  Solving for Uy, Initial residual = 1.24585e-07, Final residual = 1.24585e-07, No Iterations 0
DILUPBiCG:  Solving for Uz, Initial residual = 4.80284e-07, Final residual = 4.80284e-07, No Iterations 0
DICPCG:  Solving for p, Initial residual = 0.00100755, Final residual = 9.27533e-05, No Iterations 18
DICPCG:  Solving for p, Initial residual = 0.000237575, Final residual = 2.18479e-05, No Iterations 22
DICPCG:  Solving for p, Initial residual = 5.14756e-05, Final residual = 9.25689e-06, No Iterations 42
time step continuity errors : sum local = 8.65528e-05, global = -1.92916e-05, cumulative = -0.00388431
DILUPBiCG:  Solving for epsilon, Initial residual = 0.000782992, Final residual = 4.83903e-07, No Iterations 3
DILUPBiCG:  Solving for k, Initial residual = 0.000902522, Final residual = 4.61882e-07, No Iterations 3
ExecutionTime = 1857.03 s  ClockTime = 1932 s

Time = 909

DILUPBiCG:  Solving for Ux, Initial residual = 1.48723e-07, Final residual = 1.48723e-07, No Iterations 0
DILUPBiCG:  Solving for Uy, Initial residual = 1.24545e-07, Final residual = 1.24545e-07, No Iterations 0
DILUPBiCG:  Solving for Uz, Initial residual = 4.78972e-07, Final residual = 4.78972e-07, No Iterations 0
DICPCG:  Solving for p, Initial residual = 0.00100647, Final residual = 9.16274e-05, No Iterations 18
DICPCG:  Solving for p, Initial residual = 0.000236749, Final residual = 2.11916e-05, No Iterations 22
DICPCG:  Solving for p, Initial residual = 5.08281e-05, Final residual = 9.99985e-06, No Iterations 42
time step continuity errors : sum local = 9.34618e-05, global = -2.12541e-05, cumulative = -0.00390557
DILUPBiCG:  Solving for epsilon, Initial residual = 0.000781879, Final residual = 4.83585e-07, No Iterations 3
DILUPBiCG:  Solving for k, Initial residual = 0.000899966, Final residual = 4.63324e-07, No Iterations 3
ExecutionTime = 1858.49 s  ClockTime = 1933 s

Time = 910

DILUPBiCG:  Solving for Ux, Initial residual = 1.48629e-07, Final residual = 1.48629e-07, No Iterations 0
DILUPBiCG:  Solving for Uy, Initial residual = 1.24508e-07, Final residual = 1.24508e-07, No Iterations 0
DILUPBiCG:  Solving for Uz, Initial residual = 4.77645e-07, Final residual = 4.77645e-07, No Iterations 0
DICPCG:  Solving for p, Initial residual = 0.00100481, Final residual = 9.62158e-05, No Iterations 17
DICPCG:  Solving for p, Initial residual = 0.000238994, Final residual = 2.21242e-05, No Iterations 22
DICPCG:  Solving for p, Initial residual = 5.21333e-05, Final residual = 9.63975e-06, No Iterations 249
time step continuity errors : sum local = 9.0065e-05, global = -2.79014e-07, cumulative = -0.00390585
DILUPBiCG:  Solving for epsilon, Initial residual = 0.000780956, Final residual = 4.85929e-07, No Iterations 3
DILUPBiCG:  Solving for k, Initial residual = 0.000897514, Final residual = 4.64496e-07, No Iterations 3
ExecutionTime = 1861.45 s  ClockTime = 1936 s

Time = 911

DILUPBiCG:  Solving for Ux, Initial residual = 1.48529e-07, Final residual = 1.48529e-07, No Iterations 0
DILUPBiCG:  Solving for Uy, Initial residual = 1.24508e-07, Final residual = 1.24508e-07, No Iterations 0
DILUPBiCG:  Solving for Uz, Initial residual = 4.76375e-07, Final residual = 4.76375e-07, No Iterations 0
DICPCG:  Solving for p, Initial residual = 0.00100365, Final residual = 9.9459e-05, No Iterations 17
DICPCG:  Solving for p, Initial residual = 0.000240644, Final residual = 2.38418e-05, No Iterations 21
DICPCG:  Solving for p, Initial residual = 5.36053e-05, Final residual = 9.09946e-06, No Iterations 32
time step continuity errors : sum local = 8.51302e-05, global = -1.26945e-05, cumulative = -0.00391854
DILUPBiCG:  Solving for epsilon, Initial residual = 0.000779819, Final residual = 4.82075e-07, No Iterations 3
DILUPBiCG:  Solving for k, Initial residual = 0.000895001, Final residual = 4.65887e-07, No Iterations 3
ExecutionTime = 1862.84 s  ClockTime = 1937 s

Time = 912

DILUPBiCG:  Solving for Ux, Initial residual = 1.48441e-07, Final residual = 1.48441e-07, No Iterations 0
DILUPBiCG:  Solving for Uy, Initial residual = 1.24469e-07, Final residual = 1.24469e-07, No Iterations 0
DILUPBiCG:  Solving for Uz, Initial residual = 4.74971e-07, Final residual = 4.74971e-07, No Iterations 0
DICPCG:  Solving for p, Initial residual = 0.00100112, Final residual = 9.94219e-05, No Iterations 17
DICPCG:  Solving for p, Initial residual = 0.00024054, Final residual = 2.40254e-05, No Iterations 21
DICPCG:  Solving for p, Initial residual = 5.38004e-05, Final residual = 9.13562e-06, No Iterations 32
time step continuity errors : sum local = 8.54343e-05, global = -7.95142e-06, cumulative = -0.00392649
DILUPBiCG:  Solving for epsilon, Initial residual = 0.000778838, Final residual = 4.85469e-07, No Iterations 3
DILUPBiCG:  Solving for k, Initial residual = 0.00089253, Final residual = 4.67332e-07, No Iterations 3
ExecutionTime = 1864.25 s  ClockTime = 1939 s

Time = 913

DILUPBiCG:  Solving for Ux, Initial residual = 1.4837e-07, Final residual = 1.4837e-07, No Iterations 0
DILUPBiCG:  Solving for Uy, Initial residual = 1.24437e-07, Final residual = 1.24437e-07, No Iterations 0
DILUPBiCG:  Solving for Uz, Initial residual = 4.73601e-07, Final residual = 4.73601e-07, No Iterations 0
DICPCG:  Solving for p, Initial residual = 0.00100219, Final residual = 9.6653e-05, No Iterations 17
DICPCG:  Solving for p, Initial residual = 0.000239377, Final residual = 2.21635e-05, No Iterations 22
DICPCG:  Solving for p, Initial residual = 5.24424e-05, Final residual = 9.70674e-06, No Iterations 31
time step continuity errors : sum local = 9.0745e-05, global = -3.54096e-06, cumulative = -0.00393003
DILUPBiCG:  Solving for epsilon, Initial residual = 0.000777815, Final residual = 4.80111e-07, No Iterations 3
DILUPBiCG:  Solving for k, Initial residual = 0.000890106, Final residual = 4.68875e-07, No Iterations 3
ExecutionTime = 1865.62 s  ClockTime = 1940 s

Time = 914

DILUPBiCG:  Solving for Ux, Initial residual = 1.48308e-07, Final residual = 1.48308e-07, No Iterations 0
DILUPBiCG:  Solving for Uy, Initial residual = 1.24406e-07, Final residual = 1.24406e-07, No Iterations 0
DILUPBiCG:  Solving for Uz, Initial residual = 4.7223e-07, Final residual = 4.7223e-07, No Iterations 0
DICPCG:  Solving for p, Initial residual = 0.000999602, Final residual = 9.95106e-05, No Iterations 17
DICPCG:  Solving for p, Initial residual = 0.000241164, Final residual = 2.27398e-05, No Iterations 22
DICPCG:  Solving for p, Initial residual = 5.28718e-05, Final residual = 9.61523e-06, No Iterations 32
time step continuity errors : sum local = 8.98626e-05, global = 1.03057e-06, cumulative = -0.003929
DILUPBiCG:  Solving for epsilon, Initial residual = 0.000776845, Final residual = 4.81619e-07, No Iterations 3
DILUPBiCG:  Solving for k, Initial residual = 0.000887698, Final residual = 4.70456e-07, No Iterations 3
ExecutionTime = 1867.04 s  ClockTime = 1942 s


SIMPLE solution converged in 914 iterations

End

Finalising parallel run
