/*---------------------------------------------------------------------------*\
  =========                 |
  \\      /  F ield         | OpenFOAM: The Open Source CFD Toolbox
   \\    /   O peration     | Website:  https://openfoam.org
    \\  /    A nd           | Version:  6
     \\/     M anipulation  |
\*---------------------------------------------------------------------------*/
Build  : 6
Exec   : bouSimpleFoam -parallel
Date   : Aug 08 2020
Time   : 22:54:14
Host   : "emps-ugcs1"
PID    : 16306
I/O    : uncollated
Case   : /home/links/jjw230/Second_Extra/Case15
nProcs : 4
Slaves : 
3
(
"emps-ugcs1.16307"
"emps-ugcs1.16308"
"emps-ugcs1.16309"
)

Pstream initialized with:
    floatTransfer      : 0
    nProcsSimpleSum    : 0
    commsType          : nonBlocking
    polling iterations : 0
sigFpe : Enabling floating point exception trapping (FOAM_SIGFPE).
fileModificationChecking : Monitoring run-time modified files using timeStampMaster (fileModificationSkew 10)
allowSystemOperations : Allowing user-supplied system call operations

// * * * * * * * * * * * * * * * * * * * * * * * * * * * * * * * * * * * * * //
Create time

Create mesh for time = 0


SIMPLE: Convergence criteria found
        p: tolerance 0.001
        U: tolerance 0.001
        "(k|epsilon)": tolerance 0.001
        theta: tolerance 0.001

Reading field p

Reading field U

Reading field theta

Reading/calculating face flux field phi

Selecting incompressible transport model Newtonian
Selecting turbulence model type RAS
Selecting RAS turbulence model RNGkEpsilon
RAS
{
    RASModel        RNGkEpsilon;
    turbulence      on;
    printCoeffs     on;
    Cmu             0.0845;
    C1              1.42;
    C2              1.68;
    C3              0;
    sigmak          0.71942;
    sigmaEps        0.71942;
    eta0            4.38;
    beta            0.012;
}

No MRF models present

Creating finite volume options from "system/fvOptions"

Selecting finite volume options model type explicitPorositySource
    Source: source0
    - selecting cells using cellZone cz_solid_0
    - selected 2318 cell(s) with volume 0.00214545
Porosity region source0:
    selecting model: DarcyForchheimer
    creating porous zone: cz_solid_0
Selecting finite volume options model type explicitPorositySource
    Source: source1
    - selecting cells using cellZone cz_solid_1
    - selected 2452 cell(s) with volume 0.00214195
Porosity region source1:
    selecting model: DarcyForchheimer
    creating porous zone: cz_solid_1
Selecting finite volume options model type explicitPorositySource
    Source: source2
    - selecting cells using cellZone cz_solid_2
    - selected 2346 cell(s) with volume 0.00214578
Porosity region source2:
    selecting model: DarcyForchheimer
    creating porous zone: cz_solid_2
Selecting finite volume options model type explicitPorositySource
    Source: source3
    - selecting cells using cellZone cz_solid_3
    - selected 2089 cell(s) with volume 0.00214072
Porosity region source3:
    selecting model: DarcyForchheimer
    creating porous zone: cz_solid_3
Selecting finite volume options model type explicitPorositySource
    Source: source4
    - selecting cells using cellZone cz_solid_4
    - selected 2326 cell(s) with volume 0.00214489
Porosity region source4:
    selecting model: DarcyForchheimer
    creating porous zone: cz_solid_4
Selecting finite volume options model type explicitPorositySource
    Source: source5
    - selecting cells using cellZone cz_solid_5
    - selected 1880 cell(s) with volume 0.00214164
Porosity region source5:
    selecting model: DarcyForchheimer
    creating porous zone: cz_solid_5
Selecting finite volume options model type explicitPorositySource
    Source: source6
    - selecting cells using cellZone cz_solid_6
    - selected 2174 cell(s) with volume 0.00214488
Porosity region source6:
    selecting model: DarcyForchheimer
    creating porous zone: cz_solid_6
Selecting finite volume options model type explicitPorositySource
    Source: source7
    - selecting cells using cellZone cz_solid_7
    - selected 2094 cell(s) with volume 0.00214463
Porosity region source7:
    selecting model: DarcyForchheimer
    creating porous zone: cz_solid_7
Selecting finite volume options model type explicitPorositySource
    Source: source8
    - selecting cells using cellZone cz_solid_8
    - selected 1733 cell(s) with volume 0.00214303
Porosity region source8:
    selecting model: DarcyForchheimer
    creating porous zone: cz_solid_8
Selecting finite volume options model type explicitPorositySource
    Source: source9
    - selecting cells using cellZone cz_solid_9
    - selected 2083 cell(s) with volume 0.00214283
Porosity region source9:
    selecting model: DarcyForchheimer
    creating porous zone: cz_solid_9
Selecting finite volume options model type explicitPorositySource
    Source: source10
    - selecting cells using cellZone cz_solid_10
    - selected 2281 cell(s) with volume 0.00214538
Porosity region source10:
    selecting model: DarcyForchheimer
    creating porous zone: cz_solid_10
Selecting finite volume options model type explicitPorositySource
    Source: source11
    - selecting cells using cellZone cz_solid_11
    - selected 2356 cell(s) with volume 0.00214361
Porosity region source11:
    selecting model: DarcyForchheimer
    creating porous zone: cz_solid_11
Selecting finite volume options model type explicitPorositySource
    Source: source12
    - selecting cells using cellZone cz_solid_12
    - selected 2358 cell(s) with volume 0.00214464
Porosity region source12:
    selecting model: DarcyForchheimer
    creating porous zone: cz_solid_12
Selecting finite volume options model type explicitPorositySource
    Source: source13
    - selecting cells using cellZone cz_solid_13
    - selected 2004 cell(s) with volume 0.00214291
Porosity region source13:
    selecting model: DarcyForchheimer
    creating porous zone: cz_solid_13
Selecting finite volume options model type explicitPorositySource
    Source: source14
    - selecting cells using cellZone cz_solid_14
    - selected 1880 cell(s) with volume 0.00214437
Porosity region source14:
    selecting model: DarcyForchheimer
    creating porous zone: cz_solid_14
Selecting finite volume options model type explicitPorositySource
    Source: source15
    - selecting cells using cellZone cz_solid_15
    - selected 2114 cell(s) with volume 0.00214217
Porosity region source15:
    selecting model: DarcyForchheimer
    creating porous zone: cz_solid_15
Selecting finite volume options model type explicitPorositySource
    Source: source16
    - selecting cells using cellZone cz_solid_16
    - selected 2244 cell(s) with volume 0.00214182
Porosity region source16:
    selecting model: DarcyForchheimer
    creating porous zone: cz_solid_16
Selecting finite volume options model type explicitPorositySource
    Source: source17
    - selecting cells using cellZone cz_solid_17
    - selected 2319 cell(s) with volume 0.00214546
Porosity region source17:
    selecting model: DarcyForchheimer
    creating porous zone: cz_solid_17
Selecting finite volume options model type explicitPorositySource
    Source: source18
    - selecting cells using cellZone cz_solid_18
    - selected 2361 cell(s) with volume 0.00214493
Porosity region source18:
    selecting model: DarcyForchheimer
    creating porous zone: cz_solid_18
Selecting finite volume options model type explicitPorositySource
    Source: source19
    - selecting cells using cellZone cz_solid_19
    - selected 1815 cell(s) with volume 0.00213925
Porosity region source19:
    selecting model: DarcyForchheimer
    creating porous zone: cz_solid_19
Selecting finite volume options model type explicitPorositySource
    Source: source20
    - selecting cells using cellZone cz_solid_20
    - selected 2328 cell(s) with volume 0.00214517
Porosity region source20:
    selecting model: DarcyForchheimer
    creating porous zone: cz_solid_20
Selecting finite volume options model type explicitPorositySource
    Source: source21
    - selecting cells using cellZone cz_solid_21
    - selected 2444 cell(s) with volume 0.00214208
Porosity region source21:
    selecting model: DarcyForchheimer
    creating porous zone: cz_solid_21
Selecting finite volume options model type explicitPorositySource
    Source: source22
    - selecting cells using cellZone cz_solid_22
    - selected 2328 cell(s) with volume 0.00214551
Porosity region source22:
    selecting model: DarcyForchheimer
    creating porous zone: cz_solid_22
Selecting finite volume options model type explicitPorositySource
    Source: source23
    - selecting cells using cellZone cz_solid_23
    - selected 2088 cell(s) with volume 0.00214081
Porosity region source23:
    selecting model: DarcyForchheimer
    creating porous zone: cz_solid_23
Selecting finite volume options model type explicitPorositySource
    Source: source24
    - selecting cells using cellZone cz_solid_24
    - selected 2332 cell(s) with volume 0.0021446
Porosity region source24:
    selecting model: DarcyForchheimer
    creating porous zone: cz_solid_24
Selecting finite volume options model type explicitPorositySource
    Source: source25
    - selecting cells using cellZone cz_solid_25
    - selected 1892 cell(s) with volume 0.00214117
Porosity region source25:
    selecting model: DarcyForchheimer
    creating porous zone: cz_solid_25
Selecting finite volume options model type explicitPorositySource
    Source: source26
    - selecting cells using cellZone cz_solid_26
    - selected 2164 cell(s) with volume 0.00214437
Porosity region source26:
    selecting model: DarcyForchheimer
    creating porous zone: cz_solid_26
Selecting finite volume options model type explicitPorositySource
    Source: source27
    - selecting cells using cellZone cz_solid_27
    - selected 2090 cell(s) with volume 0.00214468
Porosity region source27:
    selecting model: DarcyForchheimer
    creating porous zone: cz_solid_27
Selecting finite volume options model type explicitPorositySource
    Source: source28
    - selecting cells using cellZone cz_solid_28
    - selected 1738 cell(s) with volume 0.00214295
Porosity region source28:
    selecting model: DarcyForchheimer
    creating porous zone: cz_solid_28
Selecting finite volume options model type explicitPorositySource
    Source: source29
    - selecting cells using cellZone cz_solid_29
    - selected 2074 cell(s) with volume 0.00214267
Porosity region source29:
    selecting model: DarcyForchheimer
    creating porous zone: cz_solid_29
Selecting finite volume options model type explicitPorositySource
    Source: source30
    - selecting cells using cellZone cz_solid_30
    - selected 2292 cell(s) with volume 0.00214513
Porosity region source30:
    selecting model: DarcyForchheimer
    creating porous zone: cz_solid_30
Selecting finite volume options model type explicitPorositySource
    Source: source31
    - selecting cells using cellZone cz_solid_31
    - selected 2368 cell(s) with volume 0.00214363
Porosity region source31:
    selecting model: DarcyForchheimer
    creating porous zone: cz_solid_31
Selecting finite volume options model type explicitPorositySource
    Source: source32
    - selecting cells using cellZone cz_solid_32
    - selected 2348 cell(s) with volume 0.0021446
Porosity region source32:
    selecting model: DarcyForchheimer
    creating porous zone: cz_solid_32
Selecting finite volume options model type explicitPorositySource
    Source: source33
    - selecting cells using cellZone cz_solid_33
    - selected 1996 cell(s) with volume 0.00214287
Porosity region source33:
    selecting model: DarcyForchheimer
    creating porous zone: cz_solid_33
Selecting finite volume options model type explicitPorositySource
    Source: source34
    - selecting cells using cellZone cz_solid_34
    - selected 1892 cell(s) with volume 0.00214421
Porosity region source34:
    selecting model: DarcyForchheimer
    creating porous zone: cz_solid_34
Selecting finite volume options model type explicitPorositySource
    Source: source35
    - selecting cells using cellZone cz_solid_35
    - selected 2106 cell(s) with volume 0.00214167
Porosity region source35:
    selecting model: DarcyForchheimer
    creating porous zone: cz_solid_35
Selecting finite volume options model type explicitPorositySource
    Source: source36
    - selecting cells using cellZone cz_solid_36
    - selected 2256 cell(s) with volume 0.00214203
Porosity region source36:
    selecting model: DarcyForchheimer
    creating porous zone: cz_solid_36
Selecting finite volume options model type explicitPorositySource
    Source: source37
    - selecting cells using cellZone cz_solid_37
    - selected 2332 cell(s) with volume 0.00214487
Porosity region source37:
    selecting model: DarcyForchheimer
    creating porous zone: cz_solid_37
Selecting finite volume options model type explicitPorositySource
    Source: source38
    - selecting cells using cellZone cz_solid_38
    - selected 2346 cell(s) with volume 0.0021446
Porosity region source38:
    selecting model: DarcyForchheimer
    creating porous zone: cz_solid_38
Selecting finite volume options model type explicitPorositySource
    Source: source39
    - selecting cells using cellZone cz_solid_39
    - selected 1814 cell(s) with volume 0.00213934
Porosity region source39:
    selecting model: DarcyForchheimer
    creating porous zone: cz_solid_39
Selecting finite volume options model type explicitPorositySource
    Source: source40
    - selecting cells using cellZone cz_solid_40
    - selected 2388 cell(s) with volume 0.00214545
Porosity region source40:
    selecting model: DarcyForchheimer
    creating porous zone: cz_solid_40
Selecting finite volume options model type explicitPorositySource
    Source: source41
    - selecting cells using cellZone cz_solid_41
    - selected 2508 cell(s) with volume 0.00214179
Porosity region source41:
    selecting model: DarcyForchheimer
    creating porous zone: cz_solid_41
Selecting finite volume options model type explicitPorositySource
    Source: source42
    - selecting cells using cellZone cz_solid_42
    - selected 2409 cell(s) with volume 0.00214556
Porosity region source42:
    selecting model: DarcyForchheimer
    creating porous zone: cz_solid_42
Selecting finite volume options model type explicitPorositySource
    Source: source43
    - selecting cells using cellZone cz_solid_43
    - selected 2159 cell(s) with volume 0.00214081
Porosity region source43:
    selecting model: DarcyForchheimer
    creating porous zone: cz_solid_43
Selecting finite volume options model type explicitPorositySource
    Source: source44
    - selecting cells using cellZone cz_solid_44
    - selected 2396 cell(s) with volume 0.00214495
Porosity region source44:
    selecting model: DarcyForchheimer
    creating porous zone: cz_solid_44
Selecting finite volume options model type explicitPorositySource
    Source: source45
    - selecting cells using cellZone cz_solid_45
    - selected 1964 cell(s) with volume 0.00214157
Porosity region source45:
    selecting model: DarcyForchheimer
    creating porous zone: cz_solid_45
Selecting finite volume options model type explicitPorositySource
    Source: source46
    - selecting cells using cellZone cz_solid_46
    - selected 2244 cell(s) with volume 0.00214472
Porosity region source46:
    selecting model: DarcyForchheimer
    creating porous zone: cz_solid_46
Selecting finite volume options model type explicitPorositySource
    Source: source47
    - selecting cells using cellZone cz_solid_47
    - selected 2171 cell(s) with volume 0.00214464
Porosity region source47:
    selecting model: DarcyForchheimer
    creating porous zone: cz_solid_47
Selecting finite volume options model type explicitPorositySource
    Source: source48
    - selecting cells using cellZone cz_solid_48
    - selected 1810 cell(s) with volume 0.0021431
Porosity region source48:
    selecting model: DarcyForchheimer
    creating porous zone: cz_solid_48
Selecting finite volume options model type explicitPorositySource
    Source: source49
    - selecting cells using cellZone cz_solid_49
    - selected 2139 cell(s) with volume 0.00214293
Porosity region source49:
    selecting model: DarcyForchheimer
    creating porous zone: cz_solid_49
Selecting finite volume options model type explicitPorositySource
    Source: source50
    - selecting cells using cellZone cz_solid_50
    - selected 2365 cell(s) with volume 0.002145
Porosity region source50:
    selecting model: DarcyForchheimer
    creating porous zone: cz_solid_50
Selecting finite volume options model type explicitPorositySource
    Source: source51
    - selecting cells using cellZone cz_solid_51
    - selected 2433 cell(s) with volume 0.00214355
Porosity region source51:
    selecting model: DarcyForchheimer
    creating porous zone: cz_solid_51
Selecting finite volume options model type explicitPorositySource
    Source: source52
    - selecting cells using cellZone cz_solid_52
    - selected 2414 cell(s) with volume 0.00214447
Porosity region source52:
    selecting model: DarcyForchheimer
    creating porous zone: cz_solid_52
Selecting finite volume options model type explicitPorositySource
    Source: source53
    - selecting cells using cellZone cz_solid_53
    - selected 2060 cell(s) with volume 0.00214301
Porosity region source53:
    selecting model: DarcyForchheimer
    creating porous zone: cz_solid_53
Selecting finite volume options model type explicitPorositySource
    Source: source54
    - selecting cells using cellZone cz_solid_54
    - selected 1964 cell(s) with volume 0.00214439
Porosity region source54:
    selecting model: DarcyForchheimer
    creating porous zone: cz_solid_54
Selecting finite volume options model type explicitPorositySource
    Source: source55
    - selecting cells using cellZone cz_solid_55
    - selected 2177 cell(s) with volume 0.00214192
Porosity region source55:
    selecting model: DarcyForchheimer
    creating porous zone: cz_solid_55
Selecting finite volume options model type explicitPorositySource
    Source: source56
    - selecting cells using cellZone cz_solid_56
    - selected 2321 cell(s) with volume 0.00214185
Porosity region source56:
    selecting model: DarcyForchheimer
    creating porous zone: cz_solid_56
Selecting finite volume options model type explicitPorositySource
    Source: source57
    - selecting cells using cellZone cz_solid_57
    - selected 2389 cell(s) with volume 0.00214549
Porosity region source57:
    selecting model: DarcyForchheimer
    creating porous zone: cz_solid_57
Selecting finite volume options model type explicitPorositySource
    Source: source58
    - selecting cells using cellZone cz_solid_58
    - selected 2417 cell(s) with volume 0.00214498
Porosity region source58:
    selecting model: DarcyForchheimer
    creating porous zone: cz_solid_58
Selecting finite volume options model type explicitPorositySource
    Source: source59
    - selecting cells using cellZone cz_solid_59
    - selected 1885 cell(s) with volume 0.00213931
Porosity region source59:
    selecting model: DarcyForchheimer
    creating porous zone: cz_solid_59
Selecting finite volume options model type explicitPorositySource
    Source: source60
    - selecting cells using cellZone cz_solid_60
    - selected 2374 cell(s) with volume 0.00214525
Porosity region source60:
    selecting model: DarcyForchheimer
    creating porous zone: cz_solid_60
Selecting finite volume options model type explicitPorositySource
    Source: source61
    - selecting cells using cellZone cz_solid_61
    - selected 2473 cell(s) with volume 0.00214202
Porosity region source61:
    selecting model: DarcyForchheimer
    creating porous zone: cz_solid_61
Selecting finite volume options model type explicitPorositySource
    Source: source62
    - selecting cells using cellZone cz_solid_62
    - selected 2346 cell(s) with volume 0.00214554
Porosity region source62:
    selecting model: DarcyForchheimer
    creating porous zone: cz_solid_62
Selecting finite volume options model type explicitPorositySource
    Source: source63
    - selecting cells using cellZone cz_solid_63
    - selected 2096 cell(s) with volume 0.00214076
Porosity region source63:
    selecting model: DarcyForchheimer
    creating porous zone: cz_solid_63
Selecting finite volume options model type explicitPorositySource
    Source: source64
    - selecting cells using cellZone cz_solid_64
    - selected 2326 cell(s) with volume 0.00214526
Porosity region source64:
    selecting model: DarcyForchheimer
    creating porous zone: cz_solid_64
Selecting finite volume options model type explicitPorositySource
    Source: source65
    - selecting cells using cellZone cz_solid_65
    - selected 1883 cell(s) with volume 0.00214154
Porosity region source65:
    selecting model: DarcyForchheimer
    creating porous zone: cz_solid_65
Selecting finite volume options model type explicitPorositySource
    Source: source66
    - selecting cells using cellZone cz_solid_66
    - selected 2198 cell(s) with volume 0.00214428
Porosity region source66:
    selecting model: DarcyForchheimer
    creating porous zone: cz_solid_66
Selecting finite volume options model type explicitPorositySource
    Source: source67
    - selecting cells using cellZone cz_solid_67
    - selected 2118 cell(s) with volume 0.00214492
Porosity region source67:
    selecting model: DarcyForchheimer
    creating porous zone: cz_solid_67
Selecting finite volume options model type explicitPorositySource
    Source: source68
    - selecting cells using cellZone cz_solid_68
    - selected 1727 cell(s) with volume 0.00214312
Porosity region source68:
    selecting model: DarcyForchheimer
    creating porous zone: cz_solid_68
Selecting finite volume options model type explicitPorositySource
    Source: source69
    - selecting cells using cellZone cz_solid_69
    - selected 2097 cell(s) with volume 0.00214274
Porosity region source69:
    selecting model: DarcyForchheimer
    creating porous zone: cz_solid_69
Selecting finite volume options model type explicitPorositySource
    Source: source70
    - selecting cells using cellZone cz_solid_70
    - selected 2309 cell(s) with volume 0.00214526
Porosity region source70:
    selecting model: DarcyForchheimer
    creating porous zone: cz_solid_70
Selecting finite volume options model type explicitPorositySource
    Source: source71
    - selecting cells using cellZone cz_solid_71
    - selected 2377 cell(s) with volume 0.00214365
Porosity region source71:
    selecting model: DarcyForchheimer
    creating porous zone: cz_solid_71
Selecting finite volume options model type explicitPorositySource
    Source: source72
    - selecting cells using cellZone cz_solid_72
    - selected 2393 cell(s) with volume 0.00214453
Porosity region source72:
    selecting model: DarcyForchheimer
    creating porous zone: cz_solid_72
Selecting finite volume options model type explicitPorositySource
    Source: source73
    - selecting cells using cellZone cz_solid_73
    - selected 1997 cell(s) with volume 0.00214275
Porosity region source73:
    selecting model: DarcyForchheimer
    creating porous zone: cz_solid_73
Selecting finite volume options model type explicitPorositySource
    Source: source74
    - selecting cells using cellZone cz_solid_74
    - selected 1891 cell(s) with volume 0.00214431
Porosity region source74:
    selecting model: DarcyForchheimer
    creating porous zone: cz_solid_74
Selecting finite volume options model type explicitPorositySource
    Source: source75
    - selecting cells using cellZone cz_solid_75
    - selected 2119 cell(s) with volume 0.00214215
Porosity region source75:
    selecting model: DarcyForchheimer
    creating porous zone: cz_solid_75
Selecting finite volume options model type explicitPorositySource
    Source: source76
    - selecting cells using cellZone cz_solid_76
    - selected 2244 cell(s) with volume 0.00214197
Porosity region source76:
    selecting model: DarcyForchheimer
    creating porous zone: cz_solid_76
Selecting finite volume options model type explicitPorositySource
    Source: source77
    - selecting cells using cellZone cz_solid_77
    - selected 2361 cell(s) with volume 0.00214545
Porosity region source77:
    selecting model: DarcyForchheimer
    creating porous zone: cz_solid_77
Selecting finite volume options model type explicitPorositySource
    Source: source78
    - selecting cells using cellZone cz_solid_78
    - selected 2382 cell(s) with volume 0.00214522
Porosity region source78:
    selecting model: DarcyForchheimer
    creating porous zone: cz_solid_78
Selecting finite volume options model type explicitPorositySource
    Source: source79
    - selecting cells using cellZone cz_solid_79
    - selected 1803 cell(s) with volume 0.00213923
Porosity region source79:
    selecting model: DarcyForchheimer
    creating porous zone: cz_solid_79
Selecting finite volume options model type explicitPorositySource
    Source: source80
    - selecting cells using cellZone cz_solid_80
    - selected 2374 cell(s) with volume 0.00214588
Porosity region source80:
    selecting model: DarcyForchheimer
    creating porous zone: cz_solid_80
Selecting finite volume options model type explicitPorositySource
    Source: source81
    - selecting cells using cellZone cz_solid_81
    - selected 2467 cell(s) with volume 0.00214308
Porosity region source81:
    selecting model: DarcyForchheimer
    creating porous zone: cz_solid_81
Selecting finite volume options model type explicitPorositySource
    Source: source82
    - selecting cells using cellZone cz_solid_82
    - selected 2343 cell(s) with volume 0.00214627
Porosity region source82:
    selecting model: DarcyForchheimer
    creating porous zone: cz_solid_82
Selecting finite volume options model type explicitPorositySource
    Source: source83
    - selecting cells using cellZone cz_solid_83
    - selected 2093 cell(s) with volume 0.00214163
Porosity region source83:
    selecting model: DarcyForchheimer
    creating porous zone: cz_solid_83
Selecting finite volume options model type explicitPorositySource
    Source: source84
    - selecting cells using cellZone cz_solid_84
    - selected 2326 cell(s) with volume 0.00214547
Porosity region source84:
    selecting model: DarcyForchheimer
    creating porous zone: cz_solid_84
Selecting finite volume options model type explicitPorositySource
    Source: source85
    - selecting cells using cellZone cz_solid_85
    - selected 1877 cell(s) with volume 0.00214247
Porosity region source85:
    selecting model: DarcyForchheimer
    creating porous zone: cz_solid_85
Selecting finite volume options model type explicitPorositySource
    Source: source86
    - selecting cells using cellZone cz_solid_86
    - selected 2189 cell(s) with volume 0.0021459
Porosity region source86:
    selecting model: DarcyForchheimer
    creating porous zone: cz_solid_86
Selecting finite volume options model type explicitPorositySource
    Source: source87
    - selecting cells using cellZone cz_solid_87
    - selected 2109 cell(s) with volume 0.00214618
Porosity region source87:
    selecting model: DarcyForchheimer
    creating porous zone: cz_solid_87
Selecting finite volume options model type explicitPorositySource
    Source: source88
    - selecting cells using cellZone cz_solid_88
    - selected 1718 cell(s) with volume 0.00214467
Porosity region source88:
    selecting model: DarcyForchheimer
    creating porous zone: cz_solid_88
Selecting finite volume options model type explicitPorositySource
    Source: source89
    - selecting cells using cellZone cz_solid_89
    - selected 2091 cell(s) with volume 0.00214375
Porosity region source89:
    selecting model: DarcyForchheimer
    creating porous zone: cz_solid_89
Selecting finite volume options model type explicitPorositySource
    Source: source90
    - selecting cells using cellZone cz_solid_90
    - selected 2303 cell(s) with volume 0.00214605
Porosity region source90:
    selecting model: DarcyForchheimer
    creating porous zone: cz_solid_90
Selecting finite volume options model type explicitPorositySource
    Source: source91
    - selecting cells using cellZone cz_solid_91
    - selected 2374 cell(s) with volume 0.0021444
Porosity region source91:
    selecting model: DarcyForchheimer
    creating porous zone: cz_solid_91
Selecting finite volume options model type explicitPorositySource
    Source: source92
    - selecting cells using cellZone cz_solid_92
    - selected 2393 cell(s) with volume 0.00214485
Porosity region source92:
    selecting model: DarcyForchheimer
    creating porous zone: cz_solid_92
Selecting finite volume options model type explicitPorositySource
    Source: source93
    - selecting cells using cellZone cz_solid_93
    - selected 1991 cell(s) with volume 0.00214374
Porosity region source93:
    selecting model: DarcyForchheimer
    creating porous zone: cz_solid_93
Selecting finite volume options model type explicitPorositySource
    Source: source94
    - selecting cells using cellZone cz_solid_94
    - selected 1882 cell(s) with volume 0.00214596
Porosity region source94:
    selecting model: DarcyForchheimer
    creating porous zone: cz_solid_94
Selecting finite volume options model type explicitPorositySource
    Source: source95
    - selecting cells using cellZone cz_solid_95
    - selected 2119 cell(s) with volume 0.00214256
Porosity region source95:
    selecting model: DarcyForchheimer
    creating porous zone: cz_solid_95
Selecting finite volume options model type explicitPorositySource
    Source: source96
    - selecting cells using cellZone cz_solid_96
    - selected 2241 cell(s) with volume 0.00214265
Porosity region source96:
    selecting model: DarcyForchheimer
    creating porous zone: cz_solid_96
Selecting finite volume options model type explicitPorositySource
    Source: source97
    - selecting cells using cellZone cz_solid_97
    - selected 2361 cell(s) with volume 0.00214545
Porosity region source97:
    selecting model: DarcyForchheimer
    creating porous zone: cz_solid_97
Selecting finite volume options model type explicitPorositySource
    Source: source98
    - selecting cells using cellZone cz_solid_98
    - selected 2376 cell(s) with volume 0.00214617
Porosity region source98:
    selecting model: DarcyForchheimer
    creating porous zone: cz_solid_98
Selecting finite volume options model type explicitPorositySource
    Source: source99
    - selecting cells using cellZone cz_solid_99
    - selected 1797 cell(s) with volume 0.00214033
Porosity region source99:
    selecting model: DarcyForchheimer
    creating porous zone: cz_solid_99

Starting time loop

forces porousforces:
--> FOAM Warning : 
    From function Foam::labelHashSet Foam::polyBoundaryMesh::patchSet(const Foam::UList<Foam::wordRe>&, bool, bool) const
    in file meshes/polyMesh/polyBoundaryMesh/polyBoundaryMesh.C at line 798
    Cannot find any patch or group names matching solid_to_fluid
    Including porosity effects


surfaceFieldValue massFlowAtFilter_0:
    total faces  = 1950
    total area   = 0.101737




surfaceFieldValue massFlowAtFilter_1:
    total faces  = 1802
    total area   = 0.101672




surfaceFieldValue massFlowAtFilter_2:
    total faces  = 1953
    total area   = 0.101719




surfaceFieldValue massFlowAtFilter_3:
    total faces  = 1690
    total area   = 0.101676




surfaceFieldValue massFlowAtFilter_4:
    total faces  = 1822
    total area   = 0.101821




surfaceFieldValue massFlowAtFilter_5:
    total faces  = 1697
    total area   = 0.10176




surfaceFieldValue massFlowAtFilter_6:
    total faces  = 1814
    total area   = 0.101921




surfaceFieldValue massFlowAtFilter_7:
    total faces  = 1867
    total area   = 0.101733




surfaceFieldValue massFlowAtFilter_8:
    total faces  = 1711
    total area   = 0.101703




surfaceFieldValue massFlowAtFilter_9:
    total faces  = 1672
    total area   = 0.101726




surfaceFieldValue massFlowAtFilter_10:
    total faces  = 1868
    total area   = 0.10175




surfaceFieldValue massFlowAtFilter_11:
    total faces  = 1795
    total area   = 0.101721




surfaceFieldValue massFlowAtFilter_12:
    total faces  = 1844
    total area   = 0.101731




surfaceFieldValue massFlowAtFilter_13:
    total faces  = 1658
    total area   = 0.101729




surfaceFieldValue massFlowAtFilter_14:
    total faces  = 1794
    total area   = 0.101732




surfaceFieldValue massFlowAtFilter_15:
    total faces  = 1777
    total area   = 0.101754




surfaceFieldValue massFlowAtFilter_16:
    total faces  = 1747
    total area   = 0.10169




surfaceFieldValue massFlowAtFilter_17:
    total faces  = 1833
    total area   = 0.101822




surfaceFieldValue massFlowAtFilter_18:
    total faces  = 1834
    total area   = 0.101819




surfaceFieldValue massFlowAtFilter_19:
    total faces  = 1612
    total area   = 0.101653




surfaceFieldValue massFlowAtFilter_20:
    total faces  = 1932
    total area   = 0.101595




surfaceFieldValue massFlowAtFilter_21:
    total faces  = 1782
    total area   = 0.101631




surfaceFieldValue massFlowAtFilter_22:
    total faces  = 1932
    total area   = 0.10163




surfaceFieldValue massFlowAtFilter_23:
    total faces  = 1676
    total area   = 0.10163




surfaceFieldValue massFlowAtFilter_24:
    total faces  = 1806
    total area   = 0.101641




surfaceFieldValue massFlowAtFilter_25:
    total faces  = 1686
    total area   = 0.101579




surfaceFieldValue massFlowAtFilter_26:
    total faces  = 1798
    total area   = 0.101824




surfaceFieldValue massFlowAtFilter_27:
    total faces  = 1852
    total area   = 0.101648




surfaceFieldValue massFlowAtFilter_28:
    total faces  = 1698
    total area   = 0.101663




surfaceFieldValue massFlowAtFilter_29:
    total faces  = 1652
    total area   = 0.101687




surfaceFieldValue massFlowAtFilter_30:
    total faces  = 1858
    total area   = 0.10173




surfaceFieldValue massFlowAtFilter_31:
    total faces  = 1784
    total area   = 0.101692




surfaceFieldValue massFlowAtFilter_32:
    total faces  = 1822
    total area   = 0.101711




surfaceFieldValue massFlowAtFilter_33:
    total faces  = 1638
    total area   = 0.101707




surfaceFieldValue massFlowAtFilter_34:
    total faces  = 1784
    total area   = 0.101689




surfaceFieldValue massFlowAtFilter_35:
    total faces  = 1758
    total area   = 0.101641




surfaceFieldValue massFlowAtFilter_36:
    total faces  = 1736
    total area   = 0.101644




surfaceFieldValue massFlowAtFilter_37:
    total faces  = 1818
    total area   = 0.101644




surfaceFieldValue massFlowAtFilter_38:
    total faces  = 1812
    total area   = 0.101664




surfaceFieldValue massFlowAtFilter_39:
    total faces  = 1598
    total area   = 0.101585




surfaceFieldValue massFlowAtFilter_40:
    total faces  = 1980
    total area   = 0.101736




surfaceFieldValue massFlowAtFilter_41:
    total faces  = 1826
    total area   = 0.101672




surfaceFieldValue massFlowAtFilter_42:
    total faces  = 1980
    total area   = 0.101709




surfaceFieldValue massFlowAtFilter_43:
    total faces  = 1720
    total area   = 0.101669




surfaceFieldValue massFlowAtFilter_44:
    total faces  = 1852
    total area   = 0.101823




surfaceFieldValue massFlowAtFilter_45:
    total faces  = 1733
    total area   = 0.101799




surfaceFieldValue massFlowAtFilter_46:
    total faces  = 1844
    total area   = 0.101915




surfaceFieldValue massFlowAtFilter_47:
    total faces  = 1900
    total area   = 0.101731




surfaceFieldValue massFlowAtFilter_48:
    total faces  = 1744
    total area   = 0.101693




surfaceFieldValue massFlowAtFilter_49:
    total faces  = 1696
    total area   = 0.101733




surfaceFieldValue massFlowAtFilter_50:
    total faces  = 1904
    total area   = 0.101747




surfaceFieldValue massFlowAtFilter_51:
    total faces  = 1828
    total area   = 0.101712




surfaceFieldValue massFlowAtFilter_52:
    total faces  = 1868
    total area   = 0.101735




surfaceFieldValue massFlowAtFilter_53:
    total faces  = 1682
    total area   = 0.101731




surfaceFieldValue massFlowAtFilter_54:
    total faces  = 1830
    total area   = 0.10172




surfaceFieldValue massFlowAtFilter_55:
    total faces  = 1804
    total area   = 0.101744




surfaceFieldValue massFlowAtFilter_56:
    total faces  = 1780
    total area   = 0.101675




surfaceFieldValue massFlowAtFilter_57:
    total faces  = 1863
    total area   = 0.101848




surfaceFieldValue massFlowAtFilter_58:
    total faces  = 1858
    total area   = 0.101826




surfaceFieldValue massFlowAtFilter_59:
    total faces  = 1642
    total area   = 0.101649




surfaceFieldValue massFlowAtFilter_60:
    total faces  = 1980
    total area   = 0.101729




surfaceFieldValue massFlowAtFilter_61:
    total faces  = 1826
    total area   = 0.101672




surfaceFieldValue massFlowAtFilter_62:
    total faces  = 1980
    total area   = 0.101687




surfaceFieldValue massFlowAtFilter_63:
    total faces  = 1714
    total area   = 0.101661




surfaceFieldValue massFlowAtFilter_64:
    total faces  = 1849
    total area   = 0.101798




surfaceFieldValue massFlowAtFilter_65:
    total faces  = 1718
    total area   = 0.101763




surfaceFieldValue massFlowAtFilter_66:
    total faces  = 1849
    total area   = 0.101823




surfaceFieldValue massFlowAtFilter_67:
    total faces  = 1910
    total area   = 0.101733




surfaceFieldValue massFlowAtFilter_68:
    total faces  = 1736
    total area   = 0.101708




surfaceFieldValue massFlowAtFilter_69:
    total faces  = 1693
    total area   = 0.101724




surfaceFieldValue massFlowAtFilter_70:
    total faces  = 1904
    total area   = 0.101729




surfaceFieldValue massFlowAtFilter_71:
    total faces  = 1828
    total area   = 0.101717




surfaceFieldValue massFlowAtFilter_72:
    total faces  = 1865
    total area   = 0.101725




surfaceFieldValue massFlowAtFilter_73:
    total faces  = 1673
    total area   = 0.101724




surfaceFieldValue massFlowAtFilter_74:
    total faces  = 1828
    total area   = 0.101715




surfaceFieldValue massFlowAtFilter_75:
    total faces  = 1805
    total area   = 0.101744




surfaceFieldValue massFlowAtFilter_76:
    total faces  = 1771
    total area   = 0.101673




surfaceFieldValue massFlowAtFilter_77:
    total faces  = 1863
    total area   = 0.10184




surfaceFieldValue massFlowAtFilter_78:
    total faces  = 1861
    total area   = 0.101815




surfaceFieldValue massFlowAtFilter_79:
    total faces  = 1630
    total area   = 0.101639




surfaceFieldValue massFlowAtFilter_80:
    total faces  = 1980
    total area   = 0.101655




surfaceFieldValue massFlowAtFilter_81:
    total faces  = 1832
    total area   = 0.101563




surfaceFieldValue massFlowAtFilter_82:
    total faces  = 1985
    total area   = 0.101602




surfaceFieldValue massFlowAtFilter_83:
    total faces  = 1719
    total area   = 0.101551




surfaceFieldValue massFlowAtFilter_84:
    total faces  = 1849
    total area   = 0.101636




surfaceFieldValue massFlowAtFilter_85:
    total faces  = 1724
    total area   = 0.101629




surfaceFieldValue massFlowAtFilter_86:
    total faces  = 1856
    total area   = 0.101721




surfaceFieldValue massFlowAtFilter_87:
    total faces  = 1917
    total area   = 0.101588




surfaceFieldValue massFlowAtFilter_88:
    total faces  = 1743
    total area   = 0.101588




surfaceFieldValue massFlowAtFilter_89:
    total faces  = 1699
    total area   = 0.101637




surfaceFieldValue massFlowAtFilter_90:
    total faces  = 1910
    total area   = 0.101642




surfaceFieldValue massFlowAtFilter_91:
    total faces  = 1833
    total area   = 0.101602




surfaceFieldValue massFlowAtFilter_92:
    total faces  = 1865
    total area   = 0.10165




surfaceFieldValue massFlowAtFilter_93:
    total faces  = 1679
    total area   = 0.101627




surfaceFieldValue massFlowAtFilter_94:
    total faces  = 1835
    total area   = 0.101581




surfaceFieldValue massFlowAtFilter_95:
    total faces  = 1805
    total area   = 0.101624




surfaceFieldValue massFlowAtFilter_96:
    total faces  = 1776
    total area   = 0.101567




surfaceFieldValue massFlowAtFilter_97:
    total faces  = 1863
    total area   = 0.101652




surfaceFieldValue massFlowAtFilter_98:
    total faces  = 1867
    total area   = 0.101648




surfaceFieldValue massFlowAtFilter_99:
    total faces  = 1636
    total area   = 0.101544


Time = 1

DILUPBiCG:  Solving for Ux, Initial residual = 1, Final residual = 1.65028e-06, No Iterations 5
DILUPBiCG:  Solving for Uy, Initial residual = 1, Final residual = 6.27097e-06, No Iterations 6
DILUPBiCG:  Solving for Uz, Initial residual = 1, Final residual = 6.82027e-06, No Iterations 5
DICPCG:  Solving for p, Initial residual = 1, Final residual = 0.0932439, No Iterations 325
DICPCG:  Solving for p, Initial residual = 0.00331216, Final residual = 0.000319766, No Iterations 3
DICPCG:  Solving for p, Initial residual = 0.000500718, Final residual = 4.96208e-05, No Iterations 34
time step continuity errors : sum local = 0.0531799, global = -0.000618784, cumulative = -0.000618784
DILUPBiCG:  Solving for epsilon, Initial residual = 0.0523432, Final residual = 9.06475e-06, No Iterations 3
DILUPBiCG:  Solving for k, Initial residual = 1, Final residual = 5.23375e-07, No Iterations 6
ExecutionTime = 6.66 s  ClockTime = 7 s

Time = 2

DILUPBiCG:  Solving for Ux, Initial residual = 0.000134089, Final residual = 3.63497e-06, No Iterations 2
DILUPBiCG:  Solving for Uy, Initial residual = 5.79153e-05, Final residual = 2.9291e-07, No Iterations 3
DILUPBiCG:  Solving for Uz, Initial residual = 0.00012086, Final residual = 3.14817e-06, No Iterations 2
DICPCG:  Solving for p, Initial residual = 0.0100527, Final residual = 0.00100369, No Iterations 127
DICPCG:  Solving for p, Initial residual = 0.00538837, Final residual = 0.000525327, No Iterations 250
DICPCG:  Solving for p, Initial residual = 0.00504345, Final residual = 0.000503917, No Iterations 10
time step continuity errors : sum local = 0.0613122, global = 0.00158542, cumulative = 0.000966636
DILUPBiCG:  Solving for epsilon, Initial residual = 0.0135011, Final residual = 7.84317e-07, No Iterations 4
DILUPBiCG:  Solving for k, Initial residual = 0.524992, Final residual = 4.09848e-08, No Iterations 7
ExecutionTime = 11.29 s  ClockTime = 11 s

Time = 3

DILUPBiCG:  Solving for Ux, Initial residual = 1.98709e-05, Final residual = 3.35012e-06, No Iterations 1
DILUPBiCG:  Solving for Uy, Initial residual = 1.1849e-05, Final residual = 2.22627e-06, No Iterations 1
DILUPBiCG:  Solving for Uz, Initial residual = 2.9158e-05, Final residual = 8.58012e-06, No Iterations 1
DICPCG:  Solving for p, Initial residual = 0.0194962, Final residual = 0.00193193, No Iterations 294
DICPCG:  Solving for p, Initial residual = 0.00723694, Final residual = 0.000717709, No Iterations 3
DICPCG:  Solving for p, Initial residual = 0.00106842, Final residual = 0.000105241, No Iterations 49
time step continuity errors : sum local = 0.0579917, global = 4.8181e-05, cumulative = 0.00101482
DILUPBiCG:  Solving for epsilon, Initial residual = 0.0179961, Final residual = 1.09818e-06, No Iterations 4
DILUPBiCG:  Solving for k, Initial residual = 0.261951, Final residual = 3.82808e-07, No Iterations 6
ExecutionTime = 15.46 s  ClockTime = 15 s

Time = 4

DILUPBiCG:  Solving for Ux, Initial residual = 5.33146e-06, Final residual = 5.33146e-06, No Iterations 0
DILUPBiCG:  Solving for Uy, Initial residual = 2.03088e-06, Final residual = 2.03088e-06, No Iterations 0
DILUPBiCG:  Solving for Uz, Initial residual = 6.56599e-06, Final residual = 6.56599e-06, No Iterations 0
DICPCG:  Solving for p, Initial residual = 0.0736638, Final residual = 0.0069568, No Iterations 305
DICPCG:  Solving for p, Initial residual = 0.00520224, Final residual = 0.000466059, No Iterations 3
DICPCG:  Solving for p, Initial residual = 0.000726624, Final residual = 7.24054e-05, No Iterations 42
time step continuity errors : sum local = 0.0367268, global = -2.67848e-05, cumulative = 0.000988032
DILUPBiCG:  Solving for epsilon, Initial residual = 0.0170834, Final residual = 7.01466e-06, No Iterations 3
DILUPBiCG:  Solving for k, Initial residual = 0.152322, Final residual = 6.68026e-07, No Iterations 5
ExecutionTime = 19.53 s  ClockTime = 19 s

Time = 5

DILUPBiCG:  Solving for Ux, Initial residual = 1.63214e-05, Final residual = 3.32553e-06, No Iterations 1
DILUPBiCG:  Solving for Uy, Initial residual = 8.8806e-06, Final residual = 8.8806e-06, No Iterations 0
DILUPBiCG:  Solving for Uz, Initial residual = 1.43367e-05, Final residual = 3.49926e-06, No Iterations 1
DICPCG:  Solving for p, Initial residual = 0.0202495, Final residual = 0.00201432, No Iterations 47
DICPCG:  Solving for p, Initial residual = 0.00636037, Final residual = 0.000628684, No Iterations 265
DICPCG:  Solving for p, Initial residual = 0.00211385, Final residual = 0.000195729, No Iterations 5
time step continuity errors : sum local = 0.0623086, global = 0.000886543, cumulative = 0.00187458
DILUPBiCG:  Solving for epsilon, Initial residual = 0.014251, Final residual = 4.26814e-06, No Iterations 3
DILUPBiCG:  Solving for k, Initial residual = 0.107199, Final residual = 5.44821e-07, No Iterations 5
ExecutionTime = 23.4 s  ClockTime = 23 s

Time = 6

DILUPBiCG:  Solving for Ux, Initial residual = 2.08078e-05, Final residual = 4.56035e-06, No Iterations 1
DILUPBiCG:  Solving for Uy, Initial residual = 1.29706e-05, Final residual = 2.57469e-06, No Iterations 1
DILUPBiCG:  Solving for Uz, Initial residual = 1.60693e-05, Final residual = 4.7937e-06, No Iterations 1
DICPCG:  Solving for p, Initial residual = 0.0238981, Final residual = 0.00233214, No Iterations 291
DICPCG:  Solving for p, Initial residual = 0.0080022, Final residual = 0.000761572, No Iterations 5
DICPCG:  Solving for p, Initial residual = 0.00116841, Final residual = 0.000111567, No Iterations 55
time step continuity errors : sum local = 0.0452332, global = -0.000430111, cumulative = 0.00144446
DILUPBiCG:  Solving for epsilon, Initial residual = 0.0134324, Final residual = 4.42971e-06, No Iterations 3
DILUPBiCG:  Solving for k, Initial residual = 0.0910967, Final residual = 4.21178e-07, No Iterations 5
ExecutionTime = 27.55 s  ClockTime = 27 s

Time = 7

DILUPBiCG:  Solving for Ux, Initial residual = 1.3647e-05, Final residual = 6.90232e-07, No Iterations 2
DILUPBiCG:  Solving for Uy, Initial residual = 4.20172e-06, Final residual = 4.20172e-06, No Iterations 0
DILUPBiCG:  Solving for Uz, Initial residual = 7.9467e-06, Final residual = 7.9467e-06, No Iterations 0
DICPCG:  Solving for p, Initial residual = 0.0835799, Final residual = 0.00832589, No Iterations 293
DICPCG:  Solving for p, Initial residual = 0.00476986, Final residual = 0.000441384, No Iterations 5
DICPCG:  Solving for p, Initial residual = 0.000681532, Final residual = 6.78469e-05, No Iterations 53
time step continuity errors : sum local = 0.0302171, global = -0.000209689, cumulative = 0.00123478
DILUPBiCG:  Solving for epsilon, Initial residual = 0.0122291, Final residual = 3.87087e-06, No Iterations 3
DILUPBiCG:  Solving for k, Initial residual = 0.0750007, Final residual = 5.7888e-07, No Iterations 5
ExecutionTime = 31.68 s  ClockTime = 32 s

Time = 8

DILUPBiCG:  Solving for Ux, Initial residual = 1.79224e-05, Final residual = 3.47225e-06, No Iterations 1
DILUPBiCG:  Solving for Uy, Initial residual = 1.1007e-05, Final residual = 2.18076e-06, No Iterations 1
DILUPBiCG:  Solving for Uz, Initial residual = 1.65005e-05, Final residual = 3.90331e-06, No Iterations 1
DICPCG:  Solving for p, Initial residual = 0.0273802, Final residual = 0.00268085, No Iterations 67
DICPCG:  Solving for p, Initial residual = 0.00769561, Final residual = 0.00073759, No Iterations 81
DICPCG:  Solving for p, Initial residual = 0.00187792, Final residual = 0.000186534, No Iterations 221
time step continuity errors : sum local = 0.0212804, global = 0.00060526, cumulative = 0.00184004
DILUPBiCG:  Solving for epsilon, Initial residual = 0.0122955, Final residual = 6.18148e-06, No Iterations 3
DILUPBiCG:  Solving for k, Initial residual = 0.0629868, Final residual = 7.04105e-07, No Iterations 5
ExecutionTime = 36 s  ClockTime = 36 s

Time = 9

DILUPBiCG:  Solving for Ux, Initial residual = 6.14683e-06, Final residual = 6.14683e-06, No Iterations 0
DILUPBiCG:  Solving for Uy, Initial residual = 6.33025e-06, Final residual = 6.33025e-06, No Iterations 0
DILUPBiCG:  Solving for Uz, Initial residual = 7.67488e-06, Final residual = 7.67488e-06, No Iterations 0
DICPCG:  Solving for p, Initial residual = 0.0213677, Final residual = 0.0019839, No Iterations 287
DICPCG:  Solving for p, Initial residual = 0.0375374, Final residual = 0.00361545, No Iterations 19
DICPCG:  Solving for p, Initial residual = 0.00687309, Final residual = 0.000633625, No Iterations 37
time step continuity errors : sum local = 0.0153832, global = 7.76124e-05, cumulative = 0.00191765
DILUPBiCG:  Solving for epsilon, Initial residual = 0.0115101, Final residual = 3.63421e-06, No Iterations 3
DILUPBiCG:  Solving for k, Initial residual = 0.055894, Final residual = 8.86493e-07, No Iterations 5
ExecutionTime = 39.99 s  ClockTime = 40 s

Time = 10

DILUPBiCG:  Solving for Ux, Initial residual = 3.6378e-06, Final residual = 3.6378e-06, No Iterations 0
DILUPBiCG:  Solving for Uy, Initial residual = 3.815e-06, Final residual = 3.815e-06, No Iterations 0
DILUPBiCG:  Solving for Uz, Initial residual = 4.40859e-06, Final residual = 4.40859e-06, No Iterations 0
DICPCG:  Solving for p, Initial residual = 0.0192645, Final residual = 0.00180837, No Iterations 293
DICPCG:  Solving for p, Initial residual = 0.00923105, Final residual = 0.000911531, No Iterations 5
DICPCG:  Solving for p, Initial residual = 0.0013827, Final residual = 0.000137123, No Iterations 54
time step continuity errors : sum local = 0.0118033, global = 8.26435e-05, cumulative = 0.00200029
DILUPBiCG:  Solving for epsilon, Initial residual = 0.0108273, Final residual = 3.08704e-06, No Iterations 3
DILUPBiCG:  Solving for k, Initial residual = 0.0508042, Final residual = 6.78652e-07, No Iterations 5
ExecutionTime = 44.08 s  ClockTime = 44 s

Time = 11

DILUPBiCG:  Solving for Ux, Initial residual = 5.35034e-06, Final residual = 5.35034e-06, No Iterations 0
DILUPBiCG:  Solving for Uy, Initial residual = 1.38367e-06, Final residual = 1.38367e-06, No Iterations 0
DILUPBiCG:  Solving for Uz, Initial residual = 4.59543e-06, Final residual = 4.59543e-06, No Iterations 0
DICPCG:  Solving for p, Initial residual = 0.0326141, Final residual = 0.00308977, No Iterations 296
DICPCG:  Solving for p, Initial residual = 0.0052831, Final residual = 0.000502453, No Iterations 4
DICPCG:  Solving for p, Initial residual = 0.000759866, Final residual = 7.24149e-05, No Iterations 55
time step continuity errors : sum local = 0.00749618, global = 8.25892e-05, cumulative = 0.00208288
DILUPBiCG:  Solving for epsilon, Initial residual = 0.010138, Final residual = 2.94119e-06, No Iterations 3
DILUPBiCG:  Solving for k, Initial residual = 0.046852, Final residual = 4.02474e-07, No Iterations 5
ExecutionTime = 48.16 s  ClockTime = 48 s

Time = 12

DILUPBiCG:  Solving for Ux, Initial residual = 6.67509e-06, Final residual = 6.67509e-06, No Iterations 0
DILUPBiCG:  Solving for Uy, Initial residual = 1.42649e-06, Final residual = 1.42649e-06, No Iterations 0
DILUPBiCG:  Solving for Uz, Initial residual = 5.4523e-06, Final residual = 5.4523e-06, No Iterations 0
DICPCG:  Solving for p, Initial residual = 0.051767, Final residual = 0.00479532, No Iterations 292
DICPCG:  Solving for p, Initial residual = 0.00397447, Final residual = 0.000387803, No Iterations 14
DICPCG:  Solving for p, Initial residual = 0.000687524, Final residual = 6.45562e-05, No Iterations 43
time step continuity errors : sum local = 0.0054743, global = 8.95646e-06, cumulative = 0.00209184
DILUPBiCG:  Solving for epsilon, Initial residual = 0.00954318, Final residual = 3.18214e-06, No Iterations 3
DILUPBiCG:  Solving for k, Initial residual = 0.0437349, Final residual = 2.26143e-07, No Iterations 5
ExecutionTime = 52.25 s  ClockTime = 52 s

Time = 13

DILUPBiCG:  Solving for Ux, Initial residual = 6.32811e-06, Final residual = 6.32811e-06, No Iterations 0
DILUPBiCG:  Solving for Uy, Initial residual = 2.34697e-06, Final residual = 2.34697e-06, No Iterations 0
DILUPBiCG:  Solving for Uz, Initial residual = 5.52615e-06, Final residual = 5.52615e-06, No Iterations 0
DICPCG:  Solving for p, Initial residual = 0.0261186, Final residual = 0.00255173, No Iterations 68
DICPCG:  Solving for p, Initial residual = 0.00783309, Final residual = 0.000708701, No Iterations 73
DICPCG:  Solving for p, Initial residual = 0.00208128, Final residual = 0.000206387, No Iterations 246
time step continuity errors : sum local = 0.00777088, global = 6.22915e-05, cumulative = 0.00215413
DILUPBiCG:  Solving for epsilon, Initial residual = 0.00917242, Final residual = 6.13905e-06, No Iterations 3
DILUPBiCG:  Solving for k, Initial residual = 0.0412105, Final residual = 2.63458e-07, No Iterations 5
ExecutionTime = 56.6 s  ClockTime = 57 s

Time = 14

DILUPBiCG:  Solving for Ux, Initial residual = 4.62531e-06, Final residual = 4.62531e-06, No Iterations 0
DILUPBiCG:  Solving for Uy, Initial residual = 2.55796e-06, Final residual = 2.55796e-06, No Iterations 0
DILUPBiCG:  Solving for Uz, Initial residual = 4.37716e-06, Final residual = 4.37716e-06, No Iterations 0
DICPCG:  Solving for p, Initial residual = 0.0216362, Final residual = 0.00210062, No Iterations 98
DICPCG:  Solving for p, Initial residual = 0.00786402, Final residual = 0.00076134, No Iterations 268
DICPCG:  Solving for p, Initial residual = 0.0258359, Final residual = 0.00250378, No Iterations 7
time step continuity errors : sum local = 0.0144093, global = 0.000205461, cumulative = 0.00235959
DILUPBiCG:  Solving for epsilon, Initial residual = 0.00894606, Final residual = 8.70476e-07, No Iterations 4
DILUPBiCG:  Solving for k, Initial residual = 0.0389764, Final residual = 6.67065e-08, No Iterations 6
ExecutionTime = 60.92 s  ClockTime = 61 s

Time = 15

DILUPBiCG:  Solving for Ux, Initial residual = 2.89982e-06, Final residual = 2.89982e-06, No Iterations 0
DILUPBiCG:  Solving for Uy, Initial residual = 1.97521e-06, Final residual = 1.97521e-06, No Iterations 0
DILUPBiCG:  Solving for Uz, Initial residual = 2.93281e-06, Final residual = 2.93281e-06, No Iterations 0
DICPCG:  Solving for p, Initial residual = 0.0213877, Final residual = 0.00209327, No Iterations 292
DICPCG:  Solving for p, Initial residual = 0.0110382, Final residual = 0.00109349, No Iterations 19
DICPCG:  Solving for p, Initial residual = 0.00195973, Final residual = 0.000194309, No Iterations 46
time step continuity errors : sum local = 0.00576639, global = -8.12869e-05, cumulative = 0.0022783
DILUPBiCG:  Solving for epsilon, Initial residual = 0.00889969, Final residual = 3.90916e-06, No Iterations 3
DILUPBiCG:  Solving for k, Initial residual = 0.0369033, Final residual = 7.14904e-07, No Iterations 5
ExecutionTime = 65.09 s  ClockTime = 65 s

Time = 16

DILUPBiCG:  Solving for Ux, Initial residual = 2.58303e-06, Final residual = 2.58303e-06, No Iterations 0
DILUPBiCG:  Solving for Uy, Initial residual = 1.00443e-06, Final residual = 1.00443e-06, No Iterations 0
DILUPBiCG:  Solving for Uz, Initial residual = 2.51296e-06, Final residual = 2.51296e-06, No Iterations 0
DICPCG:  Solving for p, Initial residual = 0.0315835, Final residual = 0.003052, No Iterations 295
DICPCG:  Solving for p, Initial residual = 0.00581438, Final residual = 0.000573776, No Iterations 5
DICPCG:  Solving for p, Initial residual = 0.000863298, Final residual = 8.11513e-05, No Iterations 58
time step continuity errors : sum local = 0.00354327, global = -6.60632e-05, cumulative = 0.00221224
DILUPBiCG:  Solving for epsilon, Initial residual = 0.00886635, Final residual = 3.56062e-06, No Iterations 3
DILUPBiCG:  Solving for k, Initial residual = 0.0349238, Final residual = 3.6624e-07, No Iterations 5
ExecutionTime = 69.21 s  ClockTime = 69 s

Time = 17

DILUPBiCG:  Solving for Ux, Initial residual = 2.85763e-06, Final residual = 2.85763e-06, No Iterations 0
DILUPBiCG:  Solving for Uy, Initial residual = 5.34343e-07, Final residual = 5.34343e-07, No Iterations 0
DILUPBiCG:  Solving for Uz, Initial residual = 2.73957e-06, Final residual = 2.73957e-06, No Iterations 0
DICPCG:  Solving for p, Initial residual = 0.0583165, Final residual = 0.0056736, No Iterations 292
DICPCG:  Solving for p, Initial residual = 0.00389102, Final residual = 0.000384901, No Iterations 8
DICPCG:  Solving for p, Initial residual = 0.000613422, Final residual = 5.86032e-05, No Iterations 55
time step continuity errors : sum local = 0.00244629, global = -2.06356e-05, cumulative = 0.0021916
DILUPBiCG:  Solving for epsilon, Initial residual = 0.00873874, Final residual = 3.07596e-06, No Iterations 3
DILUPBiCG:  Solving for k, Initial residual = 0.0330473, Final residual = 2.6968e-07, No Iterations 5
ExecutionTime = 73.31 s  ClockTime = 73 s

Time = 18

DILUPBiCG:  Solving for Ux, Initial residual = 2.71255e-06, Final residual = 2.71255e-06, No Iterations 0
DILUPBiCG:  Solving for Uy, Initial residual = 9.71247e-07, Final residual = 9.71247e-07, No Iterations 0
DILUPBiCG:  Solving for Uz, Initial residual = 2.85463e-06, Final residual = 2.85463e-06, No Iterations 0
DICPCG:  Solving for p, Initial residual = 0.0223956, Final residual = 0.00219691, No Iterations 47
DICPCG:  Solving for p, Initial residual = 0.00573974, Final residual = 0.000569952, No Iterations 268
DICPCG:  Solving for p, Initial residual = 0.00191928, Final residual = 0.000179602, No Iterations 5
time step continuity errors : sum local = 0.00526199, global = 1.37231e-05, cumulative = 0.00220533
DILUPBiCG:  Solving for epsilon, Initial residual = 0.00855357, Final residual = 3.01996e-06, No Iterations 3
DILUPBiCG:  Solving for k, Initial residual = 0.0313359, Final residual = 2.11937e-07, No Iterations 5
ExecutionTime = 77.14 s  ClockTime = 77 s

Time = 19

DILUPBiCG:  Solving for Ux, Initial residual = 2.2095e-06, Final residual = 2.2095e-06, No Iterations 0
DILUPBiCG:  Solving for Uy, Initial residual = 1.13324e-06, Final residual = 1.13324e-06, No Iterations 0
DILUPBiCG:  Solving for Uz, Initial residual = 2.59984e-06, Final residual = 2.59984e-06, No Iterations 0
DICPCG:  Solving for p, Initial residual = 0.0173303, Final residual = 0.00168635, No Iterations 94
DICPCG:  Solving for p, Initial residual = 0.00562517, Final residual = 0.000560732, No Iterations 258
DICPCG:  Solving for p, Initial residual = 0.00330656, Final residual = 0.000329764, No Iterations 31
time step continuity errors : sum local = 0.00437273, global = -8.93759e-06, cumulative = 0.00219639
DILUPBiCG:  Solving for epsilon, Initial residual = 0.00837314, Final residual = 3.09913e-06, No Iterations 3
DILUPBiCG:  Solving for k, Initial residual = 0.0298225, Final residual = 1.70308e-07, No Iterations 5
ExecutionTime = 81.47 s  ClockTime = 81 s

Time = 20

DILUPBiCG:  Solving for Ux, Initial residual = 1.74672e-06, Final residual = 1.74672e-06, No Iterations 0
DILUPBiCG:  Solving for Uy, Initial residual = 9.84297e-07, Final residual = 9.84297e-07, No Iterations 0
DILUPBiCG:  Solving for Uz, Initial residual = 2.19818e-06, Final residual = 2.19818e-06, No Iterations 0
DICPCG:  Solving for p, Initial residual = 0.0158069, Final residual = 0.00155003, No Iterations 292
DICPCG:  Solving for p, Initial residual = 0.0286255, Final residual = 0.00279224, No Iterations 29
DICPCG:  Solving for p, Initial residual = 0.00583021, Final residual = 0.000568167, No Iterations 51
time step continuity errors : sum local = 0.00252767, global = 1.52131e-05, cumulative = 0.0022116
DILUPBiCG:  Solving for epsilon, Initial residual = 0.00821386, Final residual = 3.22985e-06, No Iterations 3
DILUPBiCG:  Solving for k, Initial residual = 0.0285055, Final residual = 1.41498e-07, No Iterations 5
ExecutionTime = 85.78 s  ClockTime = 86 s

forces porousforces write:
    sum of forces:
        pressure : (0 0 0)
        viscous  : (0 0 0)
        porous   : (90639.1 -1.74218e-13 61698.6)
    sum of moments:
        pressure : (0 0 0)
        viscous  : (0 0 0)
        porous   : (54769.5 17437.6 -80274.3)

volFieldValue volFieldValue_0 write:
    volIntegrate(cz_solid_0) of U = (1.78388e-09 -4.64893e-09 -4.31859e-09)

surfaceFieldValue massFlowAtFilter_0 write:
    sum(fz_solid_0) of phi = -7.76379e-07

volFieldValue volFieldValue_1 write:
    volIntegrate(cz_solid_1) of U = (4.14223e-10 -4.2025e-09 -3.83017e-09)

surfaceFieldValue massFlowAtFilter_1 write:
    sum(fz_solid_1) of phi = 3.02122e-05

volFieldValue volFieldValue_2 write:
    volIntegrate(cz_solid_2) of U = (-6.6164e-10 -4.16896e-09 -3.26594e-09)

surfaceFieldValue massFlowAtFilter_2 write:
    sum(fz_solid_2) of phi = 9.01393e-07

volFieldValue volFieldValue_3 write:
    volIntegrate(cz_solid_3) of U = (-1.53379e-09 -4.00639e-09 -2.4829e-09)

surfaceFieldValue massFlowAtFilter_3 write:
    sum(fz_solid_3) of phi = -3.33149e-05

volFieldValue volFieldValue_4 write:
    volIntegrate(cz_solid_4) of U = (-2.28522e-09 -3.93297e-09 -1.70384e-09)

surfaceFieldValue massFlowAtFilter_4 write:
    sum(fz_solid_4) of phi = -2.63128e-05

volFieldValue volFieldValue_5 write:
    volIntegrate(cz_solid_5) of U = (-2.92446e-09 -3.8937e-09 -8.33445e-10)

surfaceFieldValue massFlowAtFilter_5 write:
    sum(fz_solid_5) of phi = -5.30349e-05

volFieldValue volFieldValue_6 write:
    volIntegrate(cz_solid_6) of U = (-3.48168e-09 -3.86469e-09 1.89674e-10)

surfaceFieldValue massFlowAtFilter_6 write:
    sum(fz_solid_6) of phi = -3.25351e-05

volFieldValue volFieldValue_7 write:
    volIntegrate(cz_solid_7) of U = (-3.79725e-09 -3.9667e-09 1.52961e-09)

surfaceFieldValue massFlowAtFilter_7 write:
    sum(fz_solid_7) of phi = -4.35693e-05

volFieldValue volFieldValue_8 write:
    volIntegrate(cz_solid_8) of U = (-3.70646e-09 -4.22687e-09 2.9376e-09)

surfaceFieldValue massFlowAtFilter_8 write:
    sum(fz_solid_8) of phi = 1.26299e-05

volFieldValue volFieldValue_9 write:
    volIntegrate(cz_solid_9) of U = (-3.0434e-09 -4.44621e-09 4.45197e-09)

surfaceFieldValue massFlowAtFilter_9 write:
    sum(fz_solid_9) of phi = -6.80546e-05

volFieldValue volFieldValue_10 write:
    volIntegrate(cz_solid_10) of U = (-1.60599e-09 -4.78282e-09 5.85392e-09)

surfaceFieldValue massFlowAtFilter_10 write:
    sum(fz_solid_10) of phi = 2.10918e-05

volFieldValue volFieldValue_11 write:
    volIntegrate(cz_solid_11) of U = (1.24234e-10 -5.00339e-09 6.7386e-09)

surfaceFieldValue massFlowAtFilter_11 write:
    sum(fz_solid_11) of phi = -5.21638e-05

volFieldValue volFieldValue_12 write:
    volIntegrate(cz_solid_12) of U = (2.4779e-09 -5.36405e-09 7.07361e-09)

surfaceFieldValue massFlowAtFilter_12 write:
    sum(fz_solid_12) of phi = -0.000179581

volFieldValue volFieldValue_13 write:
    volIntegrate(cz_solid_13) of U = (4.8828e-09 -5.74406e-09 6.40867e-09)

surfaceFieldValue massFlowAtFilter_13 write:
    sum(fz_solid_13) of phi = 5.73475e-05

volFieldValue volFieldValue_14 write:
    volIntegrate(cz_solid_14) of U = (6.93687e-09 -6.5314e-09 4.89003e-09)

surfaceFieldValue massFlowAtFilter_14 write:
    sum(fz_solid_14) of phi = -7.87419e-05

volFieldValue volFieldValue_15 write:
    volIntegrate(cz_solid_15) of U = (8.16348e-09 -6.84445e-09 2.52516e-09)

surfaceFieldValue massFlowAtFilter_15 write:
    sum(fz_solid_15) of phi = 6.15697e-05

volFieldValue volFieldValue_16 write:
    volIntegrate(cz_solid_16) of U = (8.07835e-09 -6.73373e-09 -1.98256e-11)

surfaceFieldValue massFlowAtFilter_16 write:
    sum(fz_solid_16) of phi = -0.000104691

volFieldValue volFieldValue_17 write:
    volIntegrate(cz_solid_17) of U = (6.98291e-09 -6.40667e-09 -2.22941e-09)

surfaceFieldValue massFlowAtFilter_17 write:
    sum(fz_solid_17) of phi = 1.39653e-05

volFieldValue volFieldValue_18 write:
    volIntegrate(cz_solid_18) of U = (5.413e-09 -5.95067e-09 -3.59101e-09)

surfaceFieldValue massFlowAtFilter_18 write:
    sum(fz_solid_18) of phi = 7.60564e-05

volFieldValue volFieldValue_19 write:
    volIntegrate(cz_solid_19) of U = (3.54187e-09 -5.2943e-09 -4.31698e-09)

surfaceFieldValue massFlowAtFilter_19 write:
    sum(fz_solid_19) of phi = 6.81906e-05

volFieldValue volFieldValue_20 write:
    volIntegrate(cz_solid_20) of U = (1.53005e-09 -9.45312e-09 -3.28374e-09)

surfaceFieldValue massFlowAtFilter_20 write:
    sum(fz_solid_20) of phi = -1.42951e-05

volFieldValue volFieldValue_21 write:
    volIntegrate(cz_solid_21) of U = (4.01664e-10 -8.65561e-09 -2.91574e-09)

surfaceFieldValue massFlowAtFilter_21 write:
    sum(fz_solid_21) of phi = 2.0526e-05

volFieldValue volFieldValue_22 write:
    volIntegrate(cz_solid_22) of U = (-4.57186e-10 -8.51696e-09 -2.47818e-09)

surfaceFieldValue massFlowAtFilter_22 write:
    sum(fz_solid_22) of phi = 6.2656e-06

volFieldValue volFieldValue_23 write:
    volIntegrate(cz_solid_23) of U = (-1.14755e-09 -8.02948e-09 -1.85892e-09)

surfaceFieldValue massFlowAtFilter_23 write:
    sum(fz_solid_23) of phi = -1.67564e-05

volFieldValue volFieldValue_24 write:
    volIntegrate(cz_solid_24) of U = (-1.71788e-09 -7.91875e-09 -1.23925e-09)

surfaceFieldValue massFlowAtFilter_24 write:
    sum(fz_solid_24) of phi = -2.87206e-05

volFieldValue volFieldValue_25 write:
    volIntegrate(cz_solid_25) of U = (-2.21147e-09 -7.76149e-09 -5.64679e-10)

surfaceFieldValue massFlowAtFilter_25 write:
    sum(fz_solid_25) of phi = -2.67113e-08

volFieldValue volFieldValue_26 write:
    volIntegrate(cz_solid_26) of U = (-2.63183e-09 -7.67979e-09 2.304e-10)

surfaceFieldValue massFlowAtFilter_26 write:
    sum(fz_solid_26) of phi = -5.94463e-06

volFieldValue volFieldValue_27 write:
    volIntegrate(cz_solid_27) of U = (-2.83858e-09 -7.9833e-09 1.2813e-09)

surfaceFieldValue massFlowAtFilter_27 write:
    sum(fz_solid_27) of phi = 4.62994e-06

volFieldValue volFieldValue_28 write:
    volIntegrate(cz_solid_28) of U = (-2.72707e-09 -8.46865e-09 2.36994e-09)

surfaceFieldValue massFlowAtFilter_28 write:
    sum(fz_solid_28) of phi = -1.20431e-05

volFieldValue volFieldValue_29 write:
    volIntegrate(cz_solid_29) of U = (-2.16214e-09 -9.04758e-09 3.51714e-09)

surfaceFieldValue massFlowAtFilter_29 write:
    sum(fz_solid_29) of phi = 5.08077e-05

volFieldValue volFieldValue_30 write:
    volIntegrate(cz_solid_30) of U = (-9.86986e-10 -1.00411e-08 4.55076e-09)

surfaceFieldValue massFlowAtFilter_30 write:
    sum(fz_solid_30) of phi = 2.66143e-05

volFieldValue volFieldValue_31 write:
    volIntegrate(cz_solid_31) of U = (3.60563e-10 -1.11363e-08 5.1436e-09)

surfaceFieldValue massFlowAtFilter_31 write:
    sum(fz_solid_31) of phi = -2.17279e-05

volFieldValue volFieldValue_32 write:
    volIntegrate(cz_solid_32) of U = (2.13389e-09 -1.27497e-08 5.32405e-09)

surfaceFieldValue massFlowAtFilter_32 write:
    sum(fz_solid_32) of phi = -3.77786e-05

volFieldValue volFieldValue_33 write:
    volIntegrate(cz_solid_33) of U = (3.90575e-09 -1.38039e-08 4.83118e-09)

surfaceFieldValue massFlowAtFilter_33 write:
    sum(fz_solid_33) of phi = 1.29582e-06

volFieldValue volFieldValue_34 write:
    volIntegrate(cz_solid_34) of U = (5.46594e-09 -1.47459e-08 3.8059e-09)

surfaceFieldValue massFlowAtFilter_34 write:
    sum(fz_solid_34) of phi = -4.32107e-05

volFieldValue volFieldValue_35 write:
    volIntegrate(cz_solid_35) of U = (6.47068e-09 -1.52414e-08 2.17422e-09)

surfaceFieldValue massFlowAtFilter_35 write:
    sum(fz_solid_35) of phi = 2.42463e-05

volFieldValue volFieldValue_36 write:
    volIntegrate(cz_solid_36) of U = (6.52885e-09 -1.46286e-08 2.99885e-10)

surfaceFieldValue massFlowAtFilter_36 write:
    sum(fz_solid_36) of phi = -1.90307e-05

volFieldValue volFieldValue_37 write:
    volIntegrate(cz_solid_37) of U = (5.76378e-09 -1.31379e-08 -1.4494e-09)

surfaceFieldValue massFlowAtFilter_37 write:
    sum(fz_solid_37) of phi = 8.7032e-05

volFieldValue volFieldValue_38 write:
    volIntegrate(cz_solid_38) of U = (4.54911e-09 -1.19606e-08 -2.60646e-09)

surfaceFieldValue massFlowAtFilter_38 write:
    sum(fz_solid_38) of phi = 6.35604e-05

volFieldValue volFieldValue_39 write:
    volIntegrate(cz_solid_39) of U = (2.99969e-09 -1.08146e-08 -3.26491e-09)

surfaceFieldValue massFlowAtFilter_39 write:
    sum(fz_solid_39) of phi = 3.06803e-05

volFieldValue volFieldValue_40 write:
    volIntegrate(cz_solid_40) of U = (1.00347e-09 -9.06115e-09 -1.55384e-09)

surfaceFieldValue massFlowAtFilter_40 write:
    sum(fz_solid_40) of phi = 1.86353e-05

volFieldValue volFieldValue_41 write:
    volIntegrate(cz_solid_41) of U = (3.40539e-10 -8.19503e-09 -1.41454e-09)

surfaceFieldValue massFlowAtFilter_41 write:
    sum(fz_solid_41) of phi = 3.27229e-05

volFieldValue volFieldValue_42 write:
    volIntegrate(cz_solid_42) of U = (-1.47794e-10 -8.05644e-09 -1.1962e-09)

surfaceFieldValue massFlowAtFilter_42 write:
    sum(fz_solid_42) of phi = 3.80629e-06

volFieldValue volFieldValue_43 write:
    volIntegrate(cz_solid_43) of U = (-5.40321e-10 -7.58071e-09 -8.56289e-10)

surfaceFieldValue massFlowAtFilter_43 write:
    sum(fz_solid_43) of phi = 1.11349e-05

volFieldValue volFieldValue_44 write:
    volIntegrate(cz_solid_44) of U = (-8.7364e-10 -7.44379e-09 -5.14722e-10)

surfaceFieldValue massFlowAtFilter_44 write:
    sum(fz_solid_44) of phi = 1.5207e-06

volFieldValue volFieldValue_45 write:
    volIntegrate(cz_solid_45) of U = (-1.18329e-09 -7.24431e-09 -1.47248e-10)

surfaceFieldValue massFlowAtFilter_45 write:
    sum(fz_solid_45) of phi = 8.56536e-06

volFieldValue volFieldValue_46 write:
    volIntegrate(cz_solid_46) of U = (-1.45826e-09 -7.08798e-09 3.18611e-10)

surfaceFieldValue massFlowAtFilter_46 write:
    sum(fz_solid_46) of phi = 2.93286e-06

volFieldValue volFieldValue_47 write:
    volIntegrate(cz_solid_47) of U = (-1.57338e-09 -7.20106e-09 9.69581e-10)

surfaceFieldValue massFlowAtFilter_47 write:
    sum(fz_solid_47) of phi = 3.27216e-06

volFieldValue volFieldValue_48 write:
    volIntegrate(cz_solid_48) of U = (-1.47744e-09 -7.54612e-09 1.65331e-09)

surfaceFieldValue massFlowAtFilter_48 write:
    sum(fz_solid_48) of phi = -5.1302e-06

volFieldValue volFieldValue_49 write:
    volIntegrate(cz_solid_49) of U = (-1.06334e-09 -7.87823e-09 2.38305e-09)

surfaceFieldValue massFlowAtFilter_49 write:
    sum(fz_solid_49) of phi = 3.60873e-05

volFieldValue volFieldValue_50 write:
    volIntegrate(cz_solid_50) of U = (-2.19817e-10 -8.4678e-09 3.03245e-09)

surfaceFieldValue massFlowAtFilter_50 write:
    sum(fz_solid_50) of phi = 2.7557e-05

volFieldValue volFieldValue_51 write:
    volIntegrate(cz_solid_51) of U = (7.17673e-10 -9.33762e-09 3.36981e-09)

surfaceFieldValue massFlowAtFilter_51 write:
    sum(fz_solid_51) of phi = 1.12292e-05

volFieldValue volFieldValue_52 write:
    volIntegrate(cz_solid_52) of U = (1.94464e-09 -1.07659e-08 3.4572e-09)

surfaceFieldValue massFlowAtFilter_52 write:
    sum(fz_solid_52) of phi = 8.71162e-06

volFieldValue volFieldValue_53 write:
    volIntegrate(cz_solid_53) of U = (3.18713e-09 -1.25466e-08 3.20714e-09)

surfaceFieldValue massFlowAtFilter_53 write:
    sum(fz_solid_53) of phi = 4.6495e-05

volFieldValue volFieldValue_54 write:
    volIntegrate(cz_solid_54) of U = (4.3944e-09 -1.46969e-08 2.76424e-09)

surfaceFieldValue massFlowAtFilter_54 write:
    sum(fz_solid_54) of phi = -1.01513e-05

volFieldValue volFieldValue_55 write:
    volIntegrate(cz_solid_55) of U = (5.26518e-09 -1.67969e-08 1.99662e-09)

surfaceFieldValue massFlowAtFilter_55 write:
    sum(fz_solid_55) of phi = 2.68889e-05

volFieldValue volFieldValue_56 write:
    volIntegrate(cz_solid_56) of U = (5.16619e-09 -1.69096e-08 1.06764e-09)

surfaceFieldValue massFlowAtFilter_56 write:
    sum(fz_solid_56) of phi = 2.20149e-05

volFieldValue volFieldValue_57 write:
    volIntegrate(cz_solid_57) of U = (4.21354e-09 -1.45698e-08 3.99909e-11)

surfaceFieldValue massFlowAtFilter_57 write:
    sum(fz_solid_57) of phi = 4.73238e-05

volFieldValue volFieldValue_58 write:
    volIntegrate(cz_solid_58) of U = (3.02784e-09 -1.23061e-08 -9.32028e-10)

surfaceFieldValue massFlowAtFilter_58 write:
    sum(fz_solid_58) of phi = 5.30287e-05

volFieldValue volFieldValue_59 write:
    volIntegrate(cz_solid_59) of U = (1.91159e-09 -1.06261e-08 -1.46328e-09)

surfaceFieldValue massFlowAtFilter_59 write:
    sum(fz_solid_59) of phi = 5.04618e-05

volFieldValue volFieldValue_60 write:
    volIntegrate(cz_solid_60) of U = (1.19787e-10 -6.7533e-09 1.66435e-10)

surfaceFieldValue massFlowAtFilter_60 write:
    sum(fz_solid_60) of phi = -1.12481e-05

volFieldValue volFieldValue_61 write:
    volIntegrate(cz_solid_61) of U = (9.50586e-11 -5.91133e-09 -7.04173e-11)

surfaceFieldValue massFlowAtFilter_61 write:
    sum(fz_solid_61) of phi = -5.68226e-06

volFieldValue volFieldValue_62 write:
    volIntegrate(cz_solid_62) of U = (-1.50332e-11 -5.69163e-09 -1.32133e-10)

surfaceFieldValue massFlowAtFilter_62 write:
    sum(fz_solid_62) of phi = -1.22533e-05

volFieldValue volFieldValue_63 write:
    volIntegrate(cz_solid_63) of U = (-1.65389e-10 -5.20221e-09 -7.25421e-11)

surfaceFieldValue massFlowAtFilter_63 write:
    sum(fz_solid_63) of phi = -1.24177e-05

volFieldValue volFieldValue_64 write:
    volIntegrate(cz_solid_64) of U = (-3.51047e-10 -5.04969e-09 1.99614e-11)

surfaceFieldValue massFlowAtFilter_64 write:
    sum(fz_solid_64) of phi = -1.29226e-05

volFieldValue volFieldValue_65 write:
    volIntegrate(cz_solid_65) of U = (-5.52603e-10 -4.87282e-09 1.47917e-10)

surfaceFieldValue massFlowAtFilter_65 write:
    sum(fz_solid_65) of phi = -1.51806e-05

volFieldValue volFieldValue_66 write:
    volIntegrate(cz_solid_66) of U = (-7.51011e-10 -4.77785e-09 4.01375e-10)

surfaceFieldValue massFlowAtFilter_66 write:
    sum(fz_solid_66) of phi = -2.37308e-05

volFieldValue volFieldValue_67 write:
    volIntegrate(cz_solid_67) of U = (-8.29515e-10 -4.85286e-09 8.29593e-10)

surfaceFieldValue massFlowAtFilter_67 write:
    sum(fz_solid_67) of phi = -1.78623e-05

volFieldValue volFieldValue_68 write:
    volIntegrate(cz_solid_68) of U = (-7.53184e-10 -5.0524e-09 1.29333e-09)

surfaceFieldValue massFlowAtFilter_68 write:
    sum(fz_solid_68) of phi = -3.08553e-05

volFieldValue volFieldValue_69 write:
    volIntegrate(cz_solid_69) of U = (-4.2403e-10 -5.3251e-09 1.84271e-09)

surfaceFieldValue massFlowAtFilter_69 write:
    sum(fz_solid_69) of phi = -6.46548e-07

volFieldValue volFieldValue_70 write:
    volIntegrate(cz_solid_70) of U = (2.78074e-10 -5.83997e-09 2.37573e-09)

surfaceFieldValue massFlowAtFilter_70 write:
    sum(fz_solid_70) of phi = 4.89303e-06

volFieldValue volFieldValue_71 write:
    volIntegrate(cz_solid_71) of U = (1.10223e-09 -6.77228e-09 2.68382e-09)

surfaceFieldValue massFlowAtFilter_71 write:
    sum(fz_solid_71) of phi = -4.99128e-06

volFieldValue volFieldValue_72 write:
    volIntegrate(cz_solid_72) of U = (2.32915e-09 -8.41412e-09 2.81194e-09)

surfaceFieldValue massFlowAtFilter_72 write:
    sum(fz_solid_72) of phi = -1.91511e-05

volFieldValue volFieldValue_73 write:
    volIntegrate(cz_solid_73) of U = (3.81529e-09 -1.09066e-08 2.73372e-09)

surfaceFieldValue massFlowAtFilter_73 write:
    sum(fz_solid_73) of phi = -1.063e-06

volFieldValue volFieldValue_74 write:
    volIntegrate(cz_solid_74) of U = (5.79832e-09 -1.49692e-08 2.51495e-09)

surfaceFieldValue massFlowAtFilter_74 write:
    sum(fz_solid_74) of phi = -7.29611e-05

volFieldValue volFieldValue_75 write:
    volIntegrate(cz_solid_75) of U = (8.00864e-09 -2.18948e-08 1.81102e-09)

surfaceFieldValue massFlowAtFilter_75 write:
    sum(fz_solid_75) of phi = -6.90525e-05

volFieldValue volFieldValue_76 write:
    volIntegrate(cz_solid_76) of U = (8.65657e-09 -3.22538e-08 1.26275e-09)

surfaceFieldValue massFlowAtFilter_76 write:
    sum(fz_solid_76) of phi = -0.000114974

volFieldValue volFieldValue_77 write:
    volIntegrate(cz_solid_77) of U = (4.34747e-09 -3.04748e-08 5.86322e-09)

surfaceFieldValue massFlowAtFilter_77 write:
    sum(fz_solid_77) of phi = -3.71726e-05

volFieldValue volFieldValue_78 write:
    volIntegrate(cz_solid_78) of U = (-1.27067e-09 -1.238e-08 1.58581e-09)

surfaceFieldValue massFlowAtFilter_78 write:
    sum(fz_solid_78) of phi = -3.66028e-05

volFieldValue volFieldValue_79 write:
    volIntegrate(cz_solid_79) of U = (-2.92623e-10 -7.75675e-09 5.11076e-10)

surfaceFieldValue massFlowAtFilter_79 write:
    sum(fz_solid_79) of phi = -1.11794e-05

volFieldValue volFieldValue_80 write:
    volIntegrate(cz_solid_80) of U = (-7.13971e-10 -3.39195e-09 1.33754e-09)

surfaceFieldValue massFlowAtFilter_80 write:
    sum(fz_solid_80) of phi = -5.32236e-06

volFieldValue volFieldValue_81 write:
    volIntegrate(cz_solid_81) of U = (-1.83056e-10 -2.86076e-09 8.07958e-10)

surfaceFieldValue massFlowAtFilter_81 write:
    sum(fz_solid_81) of phi = -1.91278e-06

volFieldValue volFieldValue_82 write:
    volIntegrate(cz_solid_82) of U = (-3.06352e-11 -2.58803e-09 4.93408e-10)

surfaceFieldValue massFlowAtFilter_82 write:
    sum(fz_solid_82) of phi = 4.56948e-06

volFieldValue volFieldValue_83 write:
    volIntegrate(cz_solid_83) of U = (-3.29153e-11 -2.26958e-09 3.5269e-10)

surfaceFieldValue massFlowAtFilter_83 write:
    sum(fz_solid_83) of phi = -8.46851e-06

volFieldValue volFieldValue_84 write:
    volIntegrate(cz_solid_84) of U = (-1.48744e-10 -2.12329e-09 2.99741e-10)

surfaceFieldValue massFlowAtFilter_84 write:
    sum(fz_solid_84) of phi = 1.28496e-05

volFieldValue volFieldValue_85 write:
    volIntegrate(cz_solid_85) of U = (-2.82955e-10 -1.9873e-09 3.20028e-10)

surfaceFieldValue massFlowAtFilter_85 write:
    sum(fz_solid_85) of phi = -1.52665e-05

volFieldValue volFieldValue_86 write:
    volIntegrate(cz_solid_86) of U = (-4.2101e-10 -1.87293e-09 4.87049e-10)

surfaceFieldValue massFlowAtFilter_86 write:
    sum(fz_solid_86) of phi = -7.97828e-06

volFieldValue volFieldValue_87 write:
    volIntegrate(cz_solid_87) of U = (-4.56415e-10 -1.91119e-09 8.09064e-10)

surfaceFieldValue massFlowAtFilter_87 write:
    sum(fz_solid_87) of phi = -7.34615e-06

volFieldValue volFieldValue_88 write:
    volIntegrate(cz_solid_88) of U = (-3.70169e-10 -2.05782e-09 1.16164e-09)

surfaceFieldValue massFlowAtFilter_88 write:
    sum(fz_solid_88) of phi = -1.66656e-05

volFieldValue volFieldValue_89 write:
    volIntegrate(cz_solid_89) of U = (-5.91632e-11 -2.18701e-09 1.61984e-09)

surfaceFieldValue massFlowAtFilter_89 write:
    sum(fz_solid_89) of phi = -2.01005e-05

volFieldValue volFieldValue_90 write:
    volIntegrate(cz_solid_90) of U = (6.03836e-10 -2.459e-09 2.11104e-09)

surfaceFieldValue massFlowAtFilter_90 write:
    sum(fz_solid_90) of phi = 1.8443e-05

volFieldValue volFieldValue_91 write:
    volIntegrate(cz_solid_91) of U = (1.45432e-09 -2.8877e-09 2.39601e-09)

surfaceFieldValue massFlowAtFilter_91 write:
    sum(fz_solid_91) of phi = 7.06226e-06

volFieldValue volFieldValue_92 write:
    volIntegrate(cz_solid_92) of U = (2.85564e-09 -3.65282e-09 2.44637e-09)

surfaceFieldValue massFlowAtFilter_92 write:
    sum(fz_solid_92) of phi = 4.7878e-05

volFieldValue volFieldValue_93 write:
    volIntegrate(cz_solid_93) of U = (4.78102e-09 -5.24072e-09 2.23631e-09)

surfaceFieldValue massFlowAtFilter_93 write:
    sum(fz_solid_93) of phi = 5.26346e-05

volFieldValue volFieldValue_94 write:
    volIntegrate(cz_solid_94) of U = (7.87524e-09 -7.82995e-09 1.78436e-09)

surfaceFieldValue massFlowAtFilter_94 write:
    sum(fz_solid_94) of phi = 0.00012295

volFieldValue volFieldValue_95 write:
[...]

volFieldValue volFieldValue_2 write:
    volIntegrate(cz_solid_2) of U = (-1.22882e-09 -6.02179e-08 5.12002e-10)

surfaceFieldValue massFlowAtFilter_2 write:
    sum(fz_solid_2) of phi = 0.000178818

volFieldValue volFieldValue_3 write:
    volIntegrate(cz_solid_3) of U = (-1.7576e-09 -1.02482e-07 9.82218e-10)

surfaceFieldValue massFlowAtFilter_3 write:
    sum(fz_solid_3) of phi = -0.000172028

volFieldValue volFieldValue_4 write:
    volIntegrate(cz_solid_4) of U = (-1.9363e-09 -1.42568e-07 1.91514e-09)

surfaceFieldValue massFlowAtFilter_4 write:
    sum(fz_solid_4) of phi = 9.35661e-05

volFieldValue volFieldValue_5 write:
    volIntegrate(cz_solid_5) of U = (-1.69363e-09 -1.83852e-07 2.11998e-09)

surfaceFieldValue massFlowAtFilter_5 write:
    sum(fz_solid_5) of phi = -0.000590625

volFieldValue volFieldValue_6 write:
    volIntegrate(cz_solid_6) of U = (-1.50103e-09 -2.12117e-07 1.71171e-09)

surfaceFieldValue massFlowAtFilter_6 write:
    sum(fz_solid_6) of phi = 2.22248e-05

volFieldValue volFieldValue_7 write:
    volIntegrate(cz_solid_7) of U = (-1.33507e-09 -2.50216e-07 1.30373e-09)

surfaceFieldValue massFlowAtFilter_7 write:
    sum(fz_solid_7) of phi = 0.000101358

volFieldValue volFieldValue_8 write:
    volIntegrate(cz_solid_8) of U = (-9.73149e-10 -2.35317e-07 1.41346e-09)

surfaceFieldValue massFlowAtFilter_8 write:
    sum(fz_solid_8) of phi = -0.000336372

volFieldValue volFieldValue_9 write:
    volIntegrate(cz_solid_9) of U = (-7.71889e-10 -1.91562e-07 1.49938e-09)

surfaceFieldValue massFlowAtFilter_9 write:
    sum(fz_solid_9) of phi = 1.98865e-05

volFieldValue volFieldValue_10 write:
    volIntegrate(cz_solid_10) of U = (-3.45683e-10 -1.33105e-07 1.49482e-09)

surfaceFieldValue massFlowAtFilter_10 write:
    sum(fz_solid_10) of phi = 4.098e-05

volFieldValue volFieldValue_11 write:
    volIntegrate(cz_solid_11) of U = (1.08274e-10 -7.568e-08 1.33272e-09)

surfaceFieldValue massFlowAtFilter_11 write:
    sum(fz_solid_11) of phi = 0.000137359

volFieldValue volFieldValue_12 write:
    volIntegrate(cz_solid_12) of U = (5.35814e-10 -4.57265e-08 1.1109e-09)

surfaceFieldValue massFlowAtFilter_12 write:
    sum(fz_solid_12) of phi = -0.000221522

volFieldValue volFieldValue_13 write:
    volIntegrate(cz_solid_13) of U = (8.45461e-10 -4.058e-08 6.81572e-10)

surfaceFieldValue massFlowAtFilter_13 write:
    sum(fz_solid_13) of phi = 0.000207693

volFieldValue volFieldValue_14 write:
    volIntegrate(cz_solid_14) of U = (8.48709e-10 -3.58073e-08 -4.30549e-12)

surfaceFieldValue massFlowAtFilter_14 write:
    sum(fz_solid_14) of phi = 5.39471e-05

volFieldValue volFieldValue_15 write:
    volIntegrate(cz_solid_15) of U = (2.7698e-10 -2.60005e-09 -4.57624e-10)

surfaceFieldValue massFlowAtFilter_15 write:
    sum(fz_solid_15) of phi = -0.000121205

volFieldValue volFieldValue_16 write:
    volIntegrate(cz_solid_16) of U = (7.74722e-11 3.81038e-08 -2.85197e-10)

surfaceFieldValue massFlowAtFilter_16 write:
    sum(fz_solid_16) of phi = -9.07059e-05

volFieldValue volFieldValue_17 write:
    volIntegrate(cz_solid_17) of U = (1.96764e-10 3.94154e-08 -2.58086e-10)

surfaceFieldValue massFlowAtFilter_17 write:
    sum(fz_solid_17) of phi = -5.59038e-05

volFieldValue volFieldValue_18 write:
    volIntegrate(cz_solid_18) of U = (-9.48557e-11 1.12834e-08 -4.08036e-10)

surfaceFieldValue massFlowAtFilter_18 write:
    sum(fz_solid_18) of phi = -0.000361201

volFieldValue volFieldValue_19 write:
    volIntegrate(cz_solid_19) of U = (-5.46231e-10 -5.29198e-09 -3.14277e-10)

surfaceFieldValue massFlowAtFilter_19 write:
    sum(fz_solid_19) of phi = -0.000146064

volFieldValue volFieldValue_20 write:
    volIntegrate(cz_solid_20) of U = (-2.5403e-10 -3.31616e-08 6.06708e-10)

surfaceFieldValue massFlowAtFilter_20 write:
    sum(fz_solid_20) of phi = -7.69069e-05

volFieldValue volFieldValue_21 write:
    volIntegrate(cz_solid_21) of U = (-4.38068e-10 -5.46399e-08 4.51259e-10)

surfaceFieldValue massFlowAtFilter_21 write:
    sum(fz_solid_21) of phi = 0.000157228

volFieldValue volFieldValue_22 write:
    volIntegrate(cz_solid_22) of U = (-5.85502e-10 -8.5989e-08 1.04372e-09)

surfaceFieldValue massFlowAtFilter_22 write:
    sum(fz_solid_22) of phi = -8.95398e-05

volFieldValue volFieldValue_23 write:
    volIntegrate(cz_solid_23) of U = (-9.16812e-10 -1.40148e-07 1.8119e-09)

surfaceFieldValue massFlowAtFilter_23 write:
    sum(fz_solid_23) of phi = -8.72696e-05

volFieldValue volFieldValue_24 write:
    volIntegrate(cz_solid_24) of U = (-5.50001e-10 -2.0315e-07 3.32077e-09)

surfaceFieldValue massFlowAtFilter_24 write:
    sum(fz_solid_24) of phi = -0.000459884

volFieldValue volFieldValue_25 write:
    volIntegrate(cz_solid_25) of U = (5.35528e-10 -2.6618e-07 3.50976e-09)

surfaceFieldValue massFlowAtFilter_25 write:
    sum(fz_solid_25) of phi = -0.000592824

volFieldValue volFieldValue_26 write:
    volIntegrate(cz_solid_26) of U = (1.03287e-09 -3.05093e-07 2.7436e-09)

surfaceFieldValue massFlowAtFilter_26 write:
    sum(fz_solid_26) of phi = 0.000368593

volFieldValue volFieldValue_27 write:
    volIntegrate(cz_solid_27) of U = (3.63883e-11 -3.69392e-07 2.18923e-09)

surfaceFieldValue massFlowAtFilter_27 write:
    sum(fz_solid_27) of phi = 0.000620903

volFieldValue volFieldValue_28 write:
    volIntegrate(cz_solid_28) of U = (4.14313e-10 -3.76655e-07 1.90373e-09)

surfaceFieldValue massFlowAtFilter_28 write:
    sum(fz_solid_28) of phi = -0.000127071

volFieldValue volFieldValue_29 write:
    volIntegrate(cz_solid_29) of U = (-1.01511e-10 -3.11767e-07 1.31552e-09)

surfaceFieldValue massFlowAtFilter_29 write:
    sum(fz_solid_29) of phi = 0.000102822

volFieldValue volFieldValue_30 write:
    volIntegrate(cz_solid_30) of U = (-1.97399e-10 -2.04218e-07 1.25913e-09)

surfaceFieldValue massFlowAtFilter_30 write:
    sum(fz_solid_30) of phi = -3.66281e-05

volFieldValue volFieldValue_31 write:
    volIntegrate(cz_solid_31) of U = (4.16565e-11 -1.35173e-07 1.21204e-09)

surfaceFieldValue massFlowAtFilter_31 write:
    sum(fz_solid_31) of phi = -2.15187e-05

volFieldValue volFieldValue_32 write:
    volIntegrate(cz_solid_32) of U = (4.3936e-10 -1.05326e-07 1.04522e-09)

surfaceFieldValue massFlowAtFilter_32 write:
    sum(fz_solid_32) of phi = -3.72846e-05

volFieldValue volFieldValue_33 write:
    volIntegrate(cz_solid_33) of U = (7.15413e-10 -7.52282e-08 7.19829e-10)

surfaceFieldValue massFlowAtFilter_33 write:
    sum(fz_solid_33) of phi = -2.17686e-05

volFieldValue volFieldValue_34 write:
    volIntegrate(cz_solid_34) of U = (7.64226e-10 -3.97895e-08 3.28805e-10)

surfaceFieldValue massFlowAtFilter_34 write:
    sum(fz_solid_34) of phi = -3.78211e-05

volFieldValue volFieldValue_35 write:
    volIntegrate(cz_solid_35) of U = (5.94234e-10 -1.13587e-08 3.27289e-11)

surfaceFieldValue massFlowAtFilter_35 write:
    sum(fz_solid_35) of phi = 5.01472e-06

volFieldValue volFieldValue_36 write:
    volIntegrate(cz_solid_36) of U = (4.06578e-10 2.64042e-09 -1.45703e-10)

surfaceFieldValue massFlowAtFilter_36 write:
    sum(fz_solid_36) of phi = -1.80666e-05

volFieldValue volFieldValue_37 write:
    volIntegrate(cz_solid_37) of U = (2.24235e-10 -3.15265e-09 -1.913e-10)

surfaceFieldValue massFlowAtFilter_37 write:
    sum(fz_solid_37) of phi = -4.99279e-07

volFieldValue volFieldValue_38 write:
    volIntegrate(cz_solid_38) of U = (-3.04123e-11 -1.65401e-08 -6.90551e-11)

surfaceFieldValue massFlowAtFilter_38 write:
    sum(fz_solid_38) of phi = -0.000111236

volFieldValue volFieldValue_39 write:
    volIntegrate(cz_solid_39) of U = (-2.25408e-10 -2.76604e-08 2.64097e-10)

surfaceFieldValue massFlowAtFilter_39 write:
    sum(fz_solid_39) of phi = -7.81285e-05

volFieldValue volFieldValue_40 write:
    volIntegrate(cz_solid_40) of U = (-2.59431e-10 -1.60148e-08 7.06757e-10)

surfaceFieldValue massFlowAtFilter_40 write:
    sum(fz_solid_40) of phi = -6.8885e-05

volFieldValue volFieldValue_41 write:
    volIntegrate(cz_solid_41) of U = (-4.43391e-10 -3.92035e-08 5.48958e-10)

surfaceFieldValue massFlowAtFilter_41 write:
    sum(fz_solid_41) of phi = 0.000183716

volFieldValue volFieldValue_42 write:
    volIntegrate(cz_solid_42) of U = (-5.29112e-10 -6.85214e-08 1.41874e-09)

surfaceFieldValue massFlowAtFilter_42 write:
    sum(fz_solid_42) of phi = 6.59662e-05

volFieldValue volFieldValue_43 write:
    volIntegrate(cz_solid_43) of U = (-8.9328e-10 -1.24958e-07 2.60064e-09)

surfaceFieldValue massFlowAtFilter_43 write:
    sum(fz_solid_43) of phi = 0.000349407

volFieldValue volFieldValue_44 write:
    volIntegrate(cz_solid_44) of U = (-1.08728e-10 -2.00226e-07 4.91825e-09)

surfaceFieldValue massFlowAtFilter_44 write:
    sum(fz_solid_44) of phi = -0.000210389

volFieldValue volFieldValue_45 write:
    volIntegrate(cz_solid_45) of U = (1.7631e-09 -2.74665e-07 5.29545e-09)

surfaceFieldValue massFlowAtFilter_45 write:
    sum(fz_solid_45) of phi = -0.00028157

volFieldValue volFieldValue_46 write:
    volIntegrate(cz_solid_46) of U = (2.78136e-09 -3.28986e-07 4.17194e-09)

surfaceFieldValue massFlowAtFilter_46 write:
    sum(fz_solid_46) of phi = 0.0005891

volFieldValue volFieldValue_47 write:
    volIntegrate(cz_solid_47) of U = (1.08828e-09 -4.10296e-07 3.32908e-09)

surfaceFieldValue massFlowAtFilter_47 write:
    sum(fz_solid_47) of phi = 0.000694455

volFieldValue volFieldValue_48 write:
    volIntegrate(cz_solid_48) of U = (1.96653e-09 -4.36911e-07 2.46591e-09)

surfaceFieldValue massFlowAtFilter_48 write:
    sum(fz_solid_48) of phi = -9.30055e-07

volFieldValue volFieldValue_49 write:
    volIntegrate(cz_solid_49) of U = (9.23973e-10 -3.64576e-07 6.74919e-10)

surfaceFieldValue massFlowAtFilter_49 write:
    sum(fz_solid_49) of phi = -0.000172773

volFieldValue volFieldValue_50 write:
    volIntegrate(cz_solid_50) of U = (4.49454e-10 -2.04755e-07 -1.49391e-10)

surfaceFieldValue massFlowAtFilter_50 write:
    sum(fz_solid_50) of phi = -0.000105316

volFieldValue volFieldValue_51 write:
    volIntegrate(cz_solid_51) of U = (4.47398e-10 -8.82079e-08 6.09161e-11)

surfaceFieldValue massFlowAtFilter_51 write:
    sum(fz_solid_51) of phi = -1.57257e-05

volFieldValue volFieldValue_52 write:
    volIntegrate(cz_solid_52) of U = (4.02092e-10 -4.57882e-08 4.00668e-10)

surfaceFieldValue massFlowAtFilter_52 write:
    sum(fz_solid_52) of phi = -7.46913e-05

volFieldValue volFieldValue_53 write:
    volIntegrate(cz_solid_53) of U = (4.30608e-10 -6.64214e-09 4.1322e-10)

surfaceFieldValue massFlowAtFilter_53 write:
    sum(fz_solid_53) of phi = -5.94413e-05

volFieldValue volFieldValue_54 write:
    volIntegrate(cz_solid_54) of U = (3.55996e-10 4.2835e-08 2.18584e-10)

surfaceFieldValue massFlowAtFilter_54 write:
    sum(fz_solid_54) of phi = -4.46981e-05

volFieldValue volFieldValue_55 write:
    volIntegrate(cz_solid_55) of U = (1.29774e-10 8.26877e-08 1.92726e-12)

surfaceFieldValue massFlowAtFilter_55 write:
    sum(fz_solid_55) of phi = -2.77055e-05

volFieldValue volFieldValue_56 write:
    volIntegrate(cz_solid_56) of U = (-1.09091e-10 9.10624e-08 -1.45887e-10)

surfaceFieldValue massFlowAtFilter_56 write:
    sum(fz_solid_56) of phi = -3.67494e-05

volFieldValue volFieldValue_57 write:
    volIntegrate(cz_solid_57) of U = (-3.35289e-10 6.16377e-08 -2.26265e-11)

surfaceFieldValue massFlowAtFilter_57 write:
    sum(fz_solid_57) of phi = -3.15087e-05

volFieldValue volFieldValue_58 write:
    volIntegrate(cz_solid_58) of U = (-3.84102e-10 2.51798e-08 2.36178e-10)

surfaceFieldValue massFlowAtFilter_58 write:
    sum(fz_solid_58) of phi = -0.0001606

volFieldValue volFieldValue_59 write:
    volIntegrate(cz_solid_59) of U = (-3.17906e-10 -1.19332e-09 4.97742e-10)

surfaceFieldValue massFlowAtFilter_59 write:
    sum(fz_solid_59) of phi = 4.78233e-05

volFieldValue volFieldValue_60 write:
    volIntegrate(cz_solid_60) of U = (-4.72393e-10 1.91854e-08 8.38581e-10)

surfaceFieldValue massFlowAtFilter_60 write:
    sum(fz_solid_60) of phi = -0.00020931

volFieldValue volFieldValue_61 write:
    volIntegrate(cz_solid_61) of U = (-6.7909e-10 -5.14409e-09 7.02879e-10)

surfaceFieldValue massFlowAtFilter_61 write:
    sum(fz_solid_61) of phi = -1.86334e-05

volFieldValue volFieldValue_62 write:
    volIntegrate(cz_solid_62) of U = (-7.98046e-10 -2.9725e-08 1.98601e-09)

surfaceFieldValue massFlowAtFilter_62 write:
    sum(fz_solid_62) of phi = 6.34635e-05

volFieldValue volFieldValue_63 write:
    volIntegrate(cz_solid_63) of U = (-1.27245e-09 -8.25175e-08 3.55444e-09)

surfaceFieldValue massFlowAtFilter_63 write:
    sum(fz_solid_63) of phi = 0.000225378

volFieldValue volFieldValue_64 write:
    volIntegrate(cz_solid_64) of U = (-2.19615e-10 -1.36612e-07 6.85177e-09)

surfaceFieldValue massFlowAtFilter_64 write:
    sum(fz_solid_64) of phi = -0.000217009

volFieldValue volFieldValue_65 write:
    volIntegrate(cz_solid_65) of U = (2.6331e-09 -1.84972e-07 7.58868e-09)

surfaceFieldValue massFlowAtFilter_65 write:
    sum(fz_solid_65) of phi = -0.000758496

volFieldValue volFieldValue_66 write:
    volIntegrate(cz_solid_66) of U = (4.7226e-09 -2.20233e-07 6.10276e-09)

surfaceFieldValue massFlowAtFilter_66 write:
    sum(fz_solid_66) of phi = 0.000399999

volFieldValue volFieldValue_67 write:
    volIntegrate(cz_solid_67) of U = (2.77959e-09 -2.68014e-07 4.76029e-09)

surfaceFieldValue massFlowAtFilter_67 write:
    sum(fz_solid_67) of phi = 0.000392496

volFieldValue volFieldValue_68 write:
    volIntegrate(cz_solid_68) of U = (4.43184e-09 -2.82331e-07 3.32238e-09)

surfaceFieldValue massFlowAtFilter_68 write:
    sum(fz_solid_68) of phi = -0.000503085

volFieldValue volFieldValue_69 write:
    volIntegrate(cz_solid_69) of U = (2.69692e-09 -2.28435e-07 3.10631e-10)

surfaceFieldValue massFlowAtFilter_69 write:
    sum(fz_solid_69) of phi = -0.00048003

volFieldValue volFieldValue_70 write:
    volIntegrate(cz_solid_70) of U = (1.40501e-09 -1.41265e-07 -1.0581e-09)

surfaceFieldValue massFlowAtFilter_70 write:
    sum(fz_solid_70) of phi = -0.000270199

volFieldValue volFieldValue_71 write:
    volIntegrate(cz_solid_71) of U = (7.27483e-10 -7.70006e-08 -8.67591e-10)

surfaceFieldValue massFlowAtFilter_71 write:
    sum(fz_solid_71) of phi = -1.13894e-06

volFieldValue volFieldValue_72 write:
    volIntegrate(cz_solid_72) of U = (-1.87919e-11 -2.92788e-09 -5.58427e-10)

surfaceFieldValue massFlowAtFilter_72 write:
    sum(fz_solid_72) of phi = 7.28148e-05

volFieldValue volFieldValue_73 write:
    volIntegrate(cz_solid_73) of U = (-4.6699e-10 1.05749e-07 -5.17042e-10)

surfaceFieldValue massFlowAtFilter_73 write:
    sum(fz_solid_73) of phi = -3.18612e-05

volFieldValue volFieldValue_74 write:
    volIntegrate(cz_solid_74) of U = (-7.44194e-10 1.86842e-07 -5.00579e-10)

surfaceFieldValue massFlowAtFilter_74 write:
    sum(fz_solid_74) of phi = 0.000221504

volFieldValue volFieldValue_75 write:
    volIntegrate(cz_solid_75) of U = (-8.63699e-10 2.10697e-07 -5.19194e-10)

surfaceFieldValue massFlowAtFilter_75 write:
    sum(fz_solid_75) of phi = 8.02625e-05

volFieldValue volFieldValue_76 write:
    volIntegrate(cz_solid_76) of U = (-7.31028e-10 1.30528e-07 -4.39207e-10)

surfaceFieldValue massFlowAtFilter_76 write:
    sum(fz_solid_76) of phi = -3.76251e-05

volFieldValue volFieldValue_77 write:
    volIntegrate(cz_solid_77) of U = (-5.91037e-10 7.23677e-08 -1.2312e-10)

surfaceFieldValue massFlowAtFilter_77 write:
    sum(fz_solid_77) of phi = -1.6663e-05

volFieldValue volFieldValue_78 write:
    volIntegrate(cz_solid_78) of U = (-5.44786e-10 6.64607e-08 5.4859e-11)

surfaceFieldValue massFlowAtFilter_78 write:
    sum(fz_solid_78) of phi = -0.000211962

volFieldValue volFieldValue_79 write:
    volIntegrate(cz_solid_79) of U = (-6.35564e-10 3.93153e-08 5.53608e-10)

surfaceFieldValue massFlowAtFilter_79 write:
    sum(fz_solid_79) of phi = -1.42599e-05

volFieldValue volFieldValue_80 write:
    volIntegrate(cz_solid_80) of U = (-5.29654e-10 -1.70912e-08 5.0792e-10)

surfaceFieldValue massFlowAtFilter_80 write:
    sum(fz_solid_80) of phi = -0.00010161

volFieldValue volFieldValue_81 write:
    volIntegrate(cz_solid_81) of U = (-9.08001e-10 -3.9497e-08 5.46556e-10)

surfaceFieldValue massFlowAtFilter_81 write:
    sum(fz_solid_81) of phi = -9.78465e-05

volFieldValue volFieldValue_82 write:
    volIntegrate(cz_solid_82) of U = (-1.36123e-09 -5.22232e-08 2.08078e-09)

surfaceFieldValue massFlowAtFilter_82 write:
    sum(fz_solid_82) of phi = 7.72138e-05

volFieldValue volFieldValue_83 write:
    volIntegrate(cz_solid_83) of U = (-1.98328e-09 -6.17653e-08 4.02112e-09)

surfaceFieldValue massFlowAtFilter_83 write:
    sum(fz_solid_83) of phi = -3.22928e-05

volFieldValue volFieldValue_84 write:
    volIntegrate(cz_solid_84) of U = (-8.61258e-10 -6.7733e-08 8.24207e-09)

surfaceFieldValue massFlowAtFilter_84 write:
    sum(fz_solid_84) of phi = 0.000429981

volFieldValue volFieldValue_85 write:
    volIntegrate(cz_solid_85) of U = (2.94673e-09 -6.28943e-08 9.37011e-09)

surfaceFieldValue massFlowAtFilter_85 write:
    sum(fz_solid_85) of phi = -0.000912234

volFieldValue volFieldValue_86 write:
    volIntegrate(cz_solid_86) of U = (5.86411e-09 -6.29352e-08 7.46501e-09)

surfaceFieldValue massFlowAtFilter_86 write:
    sum(fz_solid_86) of phi = -0.000172915

volFieldValue volFieldValue_87 write:
    volIntegrate(cz_solid_87) of U = (4.64151e-09 1.62941e-09 5.69536e-09)

surfaceFieldValue massFlowAtFilter_87 write:
    sum(fz_solid_87) of phi = 0.000722945

volFieldValue volFieldValue_88 write:
    volIntegrate(cz_solid_88) of U = (7.49067e-09 -1.30884e-09 4.02301e-09)

surfaceFieldValue massFlowAtFilter_88 write:
    sum(fz_solid_88) of phi = -0.0010834

volFieldValue volFieldValue_89 write:
    volIntegrate(cz_solid_89) of U = (5.24047e-09 2.3946e-08 -8.0877e-10)

surfaceFieldValue massFlowAtFilter_89 write:
    sum(fz_solid_89) of phi = -0.000770645

volFieldValue volFieldValue_90 write:
    volIntegrate(cz_solid_90) of U = (2.25764e-09 1.94295e-08 -2.33192e-09)

surfaceFieldValue massFlowAtFilter_90 write:
    sum(fz_solid_90) of phi = -0.000444865

volFieldValue volFieldValue_91 write:
    volIntegrate(cz_solid_91) of U = (1.26815e-09 -4.2477e-08 -1.2679e-09)

surfaceFieldValue massFlowAtFilter_91 write:
    sum(fz_solid_91) of phi = 0.000178754

volFieldValue volFieldValue_92 write:
    volIntegrate(cz_solid_92) of U = (5.76529e-10 -6.10134e-08 -1.57805e-09)

surfaceFieldValue massFlowAtFilter_92 write:
    sum(fz_solid_92) of phi = 0.000193059

volFieldValue volFieldValue_93 write:
    volIntegrate(cz_solid_93) of U = (-7.24984e-10 -5.1658e-08 -2.59681e-09)

surfaceFieldValue massFlowAtFilter_93 write:
    sum(fz_solid_93) of phi = 0.000178804

volFieldValue volFieldValue_94 write:
    volIntegrate(cz_solid_94) of U = (-2.64443e-09 6.49277e-09 -2.18835e-09)

surfaceFieldValue massFlowAtFilter_94 write:
    sum(fz_solid_94) of phi = 0.000792273

volFieldValue volFieldValue_95 write:
    volIntegrate(cz_solid_95) of U = (-2.24532e-09 6.02435e-08 -1.06685e-09)

surfaceFieldValue massFlowAtFilter_95 write:
    sum(fz_solid_95) of phi = -0.000184141

volFieldValue volFieldValue_96 write:
    volIntegrate(cz_solid_96) of U = (-1.01619e-09 5.92581e-08 -8.26361e-10)

surfaceFieldValue massFlowAtFilter_96 write:
    sum(fz_solid_96) of phi = -2.53193e-05

volFieldValue volFieldValue_97 write:
    volIntegrate(cz_solid_97) of U = (-4.8567e-10 4.29136e-08 -1.64166e-10)

surfaceFieldValue massFlowAtFilter_97 write:
    sum(fz_solid_97) of phi = 0.000196146

volFieldValue volFieldValue_98 write:
    volIntegrate(cz_solid_98) of U = (-3.92133e-10 3.04949e-08 1.10849e-10)

surfaceFieldValue massFlowAtFilter_98 write:
    sum(fz_solid_98) of phi = -0.000187359

volFieldValue volFieldValue_99 write:
    volIntegrate(cz_solid_99) of U = (-4.79791e-10 1.43782e-08 3.29081e-10)

surfaceFieldValue massFlowAtFilter_99 write:
    sum(fz_solid_99) of phi = 0.000230129

End

Finalising parallel run
