/*---------------------------------------------------------------------------*\
  =========                 |
  \\      /  F ield         | OpenFOAM: The Open Source CFD Toolbox
   \\    /   O peration     | Website:  https://openfoam.org
    \\  /    A nd           | Version:  6
     \\/     M anipulation  |
\*---------------------------------------------------------------------------*/
Build  : 6
Exec   : bouSimpleFoam -parallel
Date   : Aug 09 2020
Time   : 17:10:46
Host   : "emps-ugcs2"
PID    : 23379
I/O    : uncollated
Case   : /home/links/jjw230/Second_Extra/Case12
nProcs : 4
Slaves : 
3
(
"emps-ugcs2.23380"
"emps-ugcs2.23381"
"emps-ugcs2.23382"
)

Pstream initialized with:
    floatTransfer      : 0
    nProcsSimpleSum    : 0
    commsType          : nonBlocking
    polling iterations : 0
sigFpe : Enabling floating point exception trapping (FOAM_SIGFPE).
fileModificationChecking : Monitoring run-time modified files using timeStampMaster (fileModificationSkew 10)
allowSystemOperations : Allowing user-supplied system call operations

// * * * * * * * * * * * * * * * * * * * * * * * * * * * * * * * * * * * * * //
Create time

Create mesh for time = 0


SIMPLE: Convergence criteria found
        p: tolerance 0.001
        U: tolerance 0.001
        "(k|epsilon)": tolerance 0.001
        theta: tolerance 0.001

Reading field p

Reading field U

Reading field theta

Reading/calculating face flux field phi

Selecting incompressible transport model Newtonian
Selecting turbulence model type RAS
Selecting RAS turbulence model RNGkEpsilon
RAS
{
    RASModel        RNGkEpsilon;
    turbulence      on;
    printCoeffs     on;
    Cmu             0.0845;
    C1              1.42;
    C2              1.68;
    C3              0;
    sigmak          0.71942;
    sigmaEps        0.71942;
    eta0            4.38;
    beta            0.012;
}

No MRF models present

Creating finite volume options from "system/fvOptions"

Selecting finite volume options model type explicitPorositySource
    Source: source0
    - selecting cells using cellZone cz_solid_0
    - selected 2318 cell(s) with volume 0.00214547
Porosity region source0:
    selecting model: DarcyForchheimer
    creating porous zone: cz_solid_0
Selecting finite volume options model type explicitPorositySource
    Source: source1
    - selecting cells using cellZone cz_solid_1
    - selected 2452 cell(s) with volume 0.0021419
Porosity region source1:
    selecting model: DarcyForchheimer
    creating porous zone: cz_solid_1
Selecting finite volume options model type explicitPorositySource
    Source: source2
    - selecting cells using cellZone cz_solid_2
    - selected 2346 cell(s) with volume 0.00214577
Porosity region source2:
    selecting model: DarcyForchheimer
    creating porous zone: cz_solid_2
Selecting finite volume options model type explicitPorositySource
    Source: source3
    - selecting cells using cellZone cz_solid_3
    - selected 2089 cell(s) with volume 0.00214083
Porosity region source3:
    selecting model: DarcyForchheimer
    creating porous zone: cz_solid_3
Selecting finite volume options model type explicitPorositySource
    Source: source4
    - selecting cells using cellZone cz_solid_4
    - selected 2326 cell(s) with volume 0.00214488
Porosity region source4:
    selecting model: DarcyForchheimer
    creating porous zone: cz_solid_4
Selecting finite volume options model type explicitPorositySource
    Source: source5
    - selecting cells using cellZone cz_solid_5
    - selected 1880 cell(s) with volume 0.00214149
Porosity region source5:
    selecting model: DarcyForchheimer
    creating porous zone: cz_solid_5
Selecting finite volume options model type explicitPorositySource
    Source: source6
    - selecting cells using cellZone cz_solid_6
    - selected 2174 cell(s) with volume 0.00214461
Porosity region source6:
    selecting model: DarcyForchheimer
    creating porous zone: cz_solid_6
Selecting finite volume options model type explicitPorositySource
    Source: source7
    - selecting cells using cellZone cz_solid_7
    - selected 2094 cell(s) with volume 0.0021447
Porosity region source7:
    selecting model: DarcyForchheimer
    creating porous zone: cz_solid_7
Selecting finite volume options model type explicitPorositySource
    Source: source8
    - selecting cells using cellZone cz_solid_8
    - selected 1733 cell(s) with volume 0.00214311
Porosity region source8:
    selecting model: DarcyForchheimer
    creating porous zone: cz_solid_8
Selecting finite volume options model type explicitPorositySource
    Source: source9
    - selecting cells using cellZone cz_solid_9
    - selected 2083 cell(s) with volume 0.00214285
Porosity region source9:
    selecting model: DarcyForchheimer
    creating porous zone: cz_solid_9
Selecting finite volume options model type explicitPorositySource
    Source: source10
    - selecting cells using cellZone cz_solid_10
    - selected 2281 cell(s) with volume 0.00214538
Porosity region source10:
    selecting model: DarcyForchheimer
    creating porous zone: cz_solid_10
Selecting finite volume options model type explicitPorositySource
    Source: source11
    - selecting cells using cellZone cz_solid_11
    - selected 2356 cell(s) with volume 0.00214355
Porosity region source11:
    selecting model: DarcyForchheimer
    creating porous zone: cz_solid_11
Selecting finite volume options model type explicitPorositySource
    Source: source12
    - selecting cells using cellZone cz_solid_12
    - selected 2358 cell(s) with volume 0.00214456
Porosity region source12:
    selecting model: DarcyForchheimer
    creating porous zone: cz_solid_12
Selecting finite volume options model type explicitPorositySource
    Source: source13
    - selecting cells using cellZone cz_solid_13
    - selected 2004 cell(s) with volume 0.00214322
Porosity region source13:
    selecting model: DarcyForchheimer
    creating porous zone: cz_solid_13
Selecting finite volume options model type explicitPorositySource
    Source: source14
    - selecting cells using cellZone cz_solid_14
    - selected 1880 cell(s) with volume 0.00214445
Porosity region source14:
    selecting model: DarcyForchheimer
    creating porous zone: cz_solid_14
Selecting finite volume options model type explicitPorositySource
    Source: source15
    - selecting cells using cellZone cz_solid_15
    - selected 2114 cell(s) with volume 0.00214219
Porosity region source15:
    selecting model: DarcyForchheimer
    creating porous zone: cz_solid_15
Selecting finite volume options model type explicitPorositySource
    Source: source16
    - selecting cells using cellZone cz_solid_16
    - selected 2244 cell(s) with volume 0.00214184
Porosity region source16:
    selecting model: DarcyForchheimer
    creating porous zone: cz_solid_16
Selecting finite volume options model type explicitPorositySource
    Source: source17
    - selecting cells using cellZone cz_solid_17
    - selected 2319 cell(s) with volume 0.00214545
Porosity region source17:
    selecting model: DarcyForchheimer
    creating porous zone: cz_solid_17
Selecting finite volume options model type explicitPorositySource
    Source: source18
    - selecting cells using cellZone cz_solid_18
    - selected 2361 cell(s) with volume 0.00214499
Porosity region source18:
    selecting model: DarcyForchheimer
    creating porous zone: cz_solid_18
Selecting finite volume options model type explicitPorositySource
    Source: source19
    - selecting cells using cellZone cz_solid_19
    - selected 1815 cell(s) with volume 0.00213925
Porosity region source19:
    selecting model: DarcyForchheimer
    creating porous zone: cz_solid_19
Selecting finite volume options model type explicitPorositySource
    Source: source20
    - selecting cells using cellZone cz_solid_20
    - selected 2328 cell(s) with volume 0.00214491
Porosity region source20:
    selecting model: DarcyForchheimer
    creating porous zone: cz_solid_20
Selecting finite volume options model type explicitPorositySource
    Source: source21
    - selecting cells using cellZone cz_solid_21
    - selected 2444 cell(s) with volume 0.00214204
Porosity region source21:
    selecting model: DarcyForchheimer
    creating porous zone: cz_solid_21
Selecting finite volume options model type explicitPorositySource
    Source: source22
    - selecting cells using cellZone cz_solid_22
    - selected 2328 cell(s) with volume 0.00214557
Porosity region source22:
    selecting model: DarcyForchheimer
    creating porous zone: cz_solid_22
Selecting finite volume options model type explicitPorositySource
    Source: source23
    - selecting cells using cellZone cz_solid_23
    - selected 2088 cell(s) with volume 0.00214081
Porosity region source23:
    selecting model: DarcyForchheimer
    creating porous zone: cz_solid_23
Selecting finite volume options model type explicitPorositySource
    Source: source24
    - selecting cells using cellZone cz_solid_24
    - selected 2332 cell(s) with volume 0.00214458
Porosity region source24:
    selecting model: DarcyForchheimer
    creating porous zone: cz_solid_24
Selecting finite volume options model type explicitPorositySource
    Source: source25
    - selecting cells using cellZone cz_solid_25
    - selected 1892 cell(s) with volume 0.00214109
Porosity region source25:
    selecting model: DarcyForchheimer
    creating porous zone: cz_solid_25
Selecting finite volume options model type explicitPorositySource
    Source: source26
    - selecting cells using cellZone cz_solid_26
    - selected 2164 cell(s) with volume 0.00214464
Porosity region source26:
    selecting model: DarcyForchheimer
    creating porous zone: cz_solid_26
Selecting finite volume options model type explicitPorositySource
    Source: source27
    - selecting cells using cellZone cz_solid_27
    - selected 2090 cell(s) with volume 0.00214471
Porosity region source27:
    selecting model: DarcyForchheimer
    creating porous zone: cz_solid_27
Selecting finite volume options model type explicitPorositySource
    Source: source28
    - selecting cells using cellZone cz_solid_28
    - selected 1738 cell(s) with volume 0.002143
Porosity region source28:
    selecting model: DarcyForchheimer
    creating porous zone: cz_solid_28
Selecting finite volume options model type explicitPorositySource
    Source: source29
    - selecting cells using cellZone cz_solid_29
    - selected 2074 cell(s) with volume 0.00214283
Porosity region source29:
    selecting model: DarcyForchheimer
    creating porous zone: cz_solid_29
Selecting finite volume options model type explicitPorositySource
    Source: source30
    - selecting cells using cellZone cz_solid_30
    - selected 2292 cell(s) with volume 0.00214514
Porosity region source30:
    selecting model: DarcyForchheimer
    creating porous zone: cz_solid_30
Selecting finite volume options model type explicitPorositySource
    Source: source31
    - selecting cells using cellZone cz_solid_31
    - selected 2368 cell(s) with volume 0.00214365
Porosity region source31:
    selecting model: DarcyForchheimer
    creating porous zone: cz_solid_31
Selecting finite volume options model type explicitPorositySource
    Source: source32
    - selecting cells using cellZone cz_solid_32
    - selected 2348 cell(s) with volume 0.0021446
Porosity region source32:
    selecting model: DarcyForchheimer
    creating porous zone: cz_solid_32
Selecting finite volume options model type explicitPorositySource
    Source: source33
    - selecting cells using cellZone cz_solid_33
    - selected 1996 cell(s) with volume 0.00214275
Porosity region source33:
    selecting model: DarcyForchheimer
    creating porous zone: cz_solid_33
Selecting finite volume options model type explicitPorositySource
    Source: source34
    - selecting cells using cellZone cz_solid_34
    - selected 1892 cell(s) with volume 0.00214419
Porosity region source34:
    selecting model: DarcyForchheimer
    creating porous zone: cz_solid_34
Selecting finite volume options model type explicitPorositySource
    Source: source35
    - selecting cells using cellZone cz_solid_35
    - selected 2106 cell(s) with volume 0.00214182
Porosity region source35:
    selecting model: DarcyForchheimer
    creating porous zone: cz_solid_35
Selecting finite volume options model type explicitPorositySource
    Source: source36
    - selecting cells using cellZone cz_solid_36
    - selected 2256 cell(s) with volume 0.00214198
Porosity region source36:
    selecting model: DarcyForchheimer
    creating porous zone: cz_solid_36
Selecting finite volume options model type explicitPorositySource
    Source: source37
    - selecting cells using cellZone cz_solid_37
    - selected 2332 cell(s) with volume 0.00214462
Porosity region source37:
    selecting model: DarcyForchheimer
    creating porous zone: cz_solid_37
Selecting finite volume options model type explicitPorositySource
    Source: source38
    - selecting cells using cellZone cz_solid_38
    - selected 2346 cell(s) with volume 0.00214441
Porosity region source38:
    selecting model: DarcyForchheimer
    creating porous zone: cz_solid_38
Selecting finite volume options model type explicitPorositySource
    Source: source39
    - selecting cells using cellZone cz_solid_39
    - selected 1814 cell(s) with volume 0.00213936
Porosity region source39:
    selecting model: DarcyForchheimer
    creating porous zone: cz_solid_39
Selecting finite volume options model type explicitPorositySource
    Source: source40
    - selecting cells using cellZone cz_solid_40
    - selected 2388 cell(s) with volume 0.00214535
Porosity region source40:
    selecting model: DarcyForchheimer
    creating porous zone: cz_solid_40
Selecting finite volume options model type explicitPorositySource
    Source: source41
    - selecting cells using cellZone cz_solid_41
    - selected 2508 cell(s) with volume 0.00214183
Porosity region source41:
    selecting model: DarcyForchheimer
    creating porous zone: cz_solid_41
Selecting finite volume options model type explicitPorositySource
    Source: source42
    - selecting cells using cellZone cz_solid_42
    - selected 2409 cell(s) with volume 0.00214572
Porosity region source42:
    selecting model: DarcyForchheimer
    creating porous zone: cz_solid_42
Selecting finite volume options model type explicitPorositySource
    Source: source43
    - selecting cells using cellZone cz_solid_43
    - selected 2159 cell(s) with volume 0.00214084
Porosity region source43:
    selecting model: DarcyForchheimer
    creating porous zone: cz_solid_43
Selecting finite volume options model type explicitPorositySource
    Source: source44
    - selecting cells using cellZone cz_solid_44
    - selected 2396 cell(s) with volume 0.00214478
Porosity region source44:
    selecting model: DarcyForchheimer
    creating porous zone: cz_solid_44
Selecting finite volume options model type explicitPorositySource
    Source: source45
    - selecting cells using cellZone cz_solid_45
    - selected 1964 cell(s) with volume 0.00214178
Porosity region source45:
    selecting model: DarcyForchheimer
    creating porous zone: cz_solid_45
Selecting finite volume options model type explicitPorositySource
    Source: source46
    - selecting cells using cellZone cz_solid_46
    - selected 2244 cell(s) with volume 0.0021446
Porosity region source46:
    selecting model: DarcyForchheimer
    creating porous zone: cz_solid_46
Selecting finite volume options model type explicitPorositySource
    Source: source47
    - selecting cells using cellZone cz_solid_47
    - selected 2171 cell(s) with volume 0.00214448
Porosity region source47:
    selecting model: DarcyForchheimer
    creating porous zone: cz_solid_47
Selecting finite volume options model type explicitPorositySource
    Source: source48
    - selecting cells using cellZone cz_solid_48
    - selected 1810 cell(s) with volume 0.0021431
Porosity region source48:
    selecting model: DarcyForchheimer
    creating porous zone: cz_solid_48
Selecting finite volume options model type explicitPorositySource
    Source: source49
    - selecting cells using cellZone cz_solid_49
    - selected 2139 cell(s) with volume 0.00214294
Porosity region source49:
    selecting model: DarcyForchheimer
    creating porous zone: cz_solid_49
Selecting finite volume options model type explicitPorositySource
    Source: source50
    - selecting cells using cellZone cz_solid_50
    - selected 2365 cell(s) with volume 0.00214513
Porosity region source50:
    selecting model: DarcyForchheimer
    creating porous zone: cz_solid_50
Selecting finite volume options model type explicitPorositySource
    Source: source51
    - selecting cells using cellZone cz_solid_51
    - selected 2433 cell(s) with volume 0.00214358
Porosity region source51:
    selecting model: DarcyForchheimer
    creating porous zone: cz_solid_51
Selecting finite volume options model type explicitPorositySource
    Source: source52
    - selecting cells using cellZone cz_solid_52
    - selected 2414 cell(s) with volume 0.00214448
Porosity region source52:
    selecting model: DarcyForchheimer
    creating porous zone: cz_solid_52
Selecting finite volume options model type explicitPorositySource
    Source: source53
    - selecting cells using cellZone cz_solid_53
    - selected 2060 cell(s) with volume 0.00214299
Porosity region source53:
    selecting model: DarcyForchheimer
    creating porous zone: cz_solid_53
Selecting finite volume options model type explicitPorositySource
    Source: source54
    - selecting cells using cellZone cz_solid_54
    - selected 1964 cell(s) with volume 0.0021445
Porosity region source54:
    selecting model: DarcyForchheimer
    creating porous zone: cz_solid_54
Selecting finite volume options model type explicitPorositySource
    Source: source55
    - selecting cells using cellZone cz_solid_55
    - selected 2177 cell(s) with volume 0.0021418
Porosity region source55:
    selecting model: DarcyForchheimer
    creating porous zone: cz_solid_55
Selecting finite volume options model type explicitPorositySource
    Source: source56
    - selecting cells using cellZone cz_solid_56
    - selected 2321 cell(s) with volume 0.0021418
Porosity region source56:
    selecting model: DarcyForchheimer
    creating porous zone: cz_solid_56
Selecting finite volume options model type explicitPorositySource
    Source: source57
    - selecting cells using cellZone cz_solid_57
    - selected 2389 cell(s) with volume 0.00214557
Porosity region source57:
    selecting model: DarcyForchheimer
    creating porous zone: cz_solid_57
Selecting finite volume options model type explicitPorositySource
    Source: source58
    - selecting cells using cellZone cz_solid_58
    - selected 2417 cell(s) with volume 0.00214504
Porosity region source58:
    selecting model: DarcyForchheimer
    creating porous zone: cz_solid_58
Selecting finite volume options model type explicitPorositySource
    Source: source59
    - selecting cells using cellZone cz_solid_59
    - selected 1885 cell(s) with volume 0.00213927
Porosity region source59:
    selecting model: DarcyForchheimer
    creating porous zone: cz_solid_59
Selecting finite volume options model type explicitPorositySource
    Source: source60
    - selecting cells using cellZone cz_solid_60
    - selected 2374 cell(s) with volume 0.0021453
Porosity region source60:
    selecting model: DarcyForchheimer
    creating porous zone: cz_solid_60
Selecting finite volume options model type explicitPorositySource
    Source: source61
    - selecting cells using cellZone cz_solid_61
    - selected 2473 cell(s) with volume 0.00214191
Porosity region source61:
    selecting model: DarcyForchheimer
    creating porous zone: cz_solid_61
Selecting finite volume options model type explicitPorositySource
    Source: source62
    - selecting cells using cellZone cz_solid_62
    - selected 2346 cell(s) with volume 0.00214562
Porosity region source62:
    selecting model: DarcyForchheimer
    creating porous zone: cz_solid_62
Selecting finite volume options model type explicitPorositySource
    Source: source63
    - selecting cells using cellZone cz_solid_63
    - selected 2096 cell(s) with volume 0.00214079
Porosity region source63:
    selecting model: DarcyForchheimer
    creating porous zone: cz_solid_63
Selecting finite volume options model type explicitPorositySource
    Source: source64
    - selecting cells using cellZone cz_solid_64
    - selected 2326 cell(s) with volume 0.00214516
Porosity region source64:
    selecting model: DarcyForchheimer
    creating porous zone: cz_solid_64
Selecting finite volume options model type explicitPorositySource
    Source: source65
    - selecting cells using cellZone cz_solid_65
    - selected 1883 cell(s) with volume 0.00214154
Porosity region source65:
    selecting model: DarcyForchheimer
    creating porous zone: cz_solid_65
Selecting finite volume options model type explicitPorositySource
    Source: source66
    - selecting cells using cellZone cz_solid_66
    - selected 2198 cell(s) with volume 0.00214443
Porosity region source66:
    selecting model: DarcyForchheimer
    creating porous zone: cz_solid_66
Selecting finite volume options model type explicitPorositySource
    Source: source67
    - selecting cells using cellZone cz_solid_67
    - selected 2118 cell(s) with volume 0.00214483
Porosity region source67:
    selecting model: DarcyForchheimer
    creating porous zone: cz_solid_67
Selecting finite volume options model type explicitPorositySource
    Source: source68
    - selecting cells using cellZone cz_solid_68
    - selected 1727 cell(s) with volume 0.00214328
Porosity region source68:
    selecting model: DarcyForchheimer
    creating porous zone: cz_solid_68
Selecting finite volume options model type explicitPorositySource
    Source: source69
    - selecting cells using cellZone cz_solid_69
    - selected 2097 cell(s) with volume 0.0021427
Porosity region source69:
    selecting model: DarcyForchheimer
    creating porous zone: cz_solid_69
Selecting finite volume options model type explicitPorositySource
    Source: source70
    - selecting cells using cellZone cz_solid_70
    - selected 2309 cell(s) with volume 0.00214516
Porosity region source70:
    selecting model: DarcyForchheimer
    creating porous zone: cz_solid_70
Selecting finite volume options model type explicitPorositySource
    Source: source71
    - selecting cells using cellZone cz_solid_71
    - selected 2377 cell(s) with volume 0.0021437
Porosity region source71:
    selecting model: DarcyForchheimer
    creating porous zone: cz_solid_71
Selecting finite volume options model type explicitPorositySource
    Source: source72
    - selecting cells using cellZone cz_solid_72
    - selected 2393 cell(s) with volume 0.0021446
Porosity region source72:
    selecting model: DarcyForchheimer
    creating porous zone: cz_solid_72
Selecting finite volume options model type explicitPorositySource
    Source: source73
    - selecting cells using cellZone cz_solid_73
    - selected 1997 cell(s) with volume 0.00214273
Porosity region source73:
    selecting model: DarcyForchheimer
    creating porous zone: cz_solid_73
Selecting finite volume options model type explicitPorositySource
    Source: source74
    - selecting cells using cellZone cz_solid_74
    - selected 1891 cell(s) with volume 0.00214438
Porosity region source74:
    selecting model: DarcyForchheimer
    creating porous zone: cz_solid_74
Selecting finite volume options model type explicitPorositySource
    Source: source75
    - selecting cells using cellZone cz_solid_75
    - selected 2119 cell(s) with volume 0.00214198
Porosity region source75:
    selecting model: DarcyForchheimer
    creating porous zone: cz_solid_75
Selecting finite volume options model type explicitPorositySource
    Source: source76
    - selecting cells using cellZone cz_solid_76
    - selected 2244 cell(s) with volume 0.00214194
Porosity region source76:
    selecting model: DarcyForchheimer
    creating porous zone: cz_solid_76
Selecting finite volume options model type explicitPorositySource
    Source: source77
    - selecting cells using cellZone cz_solid_77
    - selected 2361 cell(s) with volume 0.00214529
Porosity region source77:
    selecting model: DarcyForchheimer
    creating porous zone: cz_solid_77
Selecting finite volume options model type explicitPorositySource
    Source: source78
    - selecting cells using cellZone cz_solid_78
    - selected 2382 cell(s) with volume 0.00214531
Porosity region source78:
    selecting model: DarcyForchheimer
    creating porous zone: cz_solid_78
Selecting finite volume options model type explicitPorositySource
    Source: source79
    - selecting cells using cellZone cz_solid_79
    - selected 1803 cell(s) with volume 0.0021392
Porosity region source79:
    selecting model: DarcyForchheimer
    creating porous zone: cz_solid_79
Selecting finite volume options model type explicitPorositySource
    Source: source80
    - selecting cells using cellZone cz_solid_80
    - selected 2374 cell(s) with volume 0.00214591
Porosity region source80:
    selecting model: DarcyForchheimer
    creating porous zone: cz_solid_80
Selecting finite volume options model type explicitPorositySource
    Source: source81
    - selecting cells using cellZone cz_solid_81
    - selected 2467 cell(s) with volume 0.002143
Porosity region source81:
    selecting model: DarcyForchheimer
    creating porous zone: cz_solid_81
Selecting finite volume options model type explicitPorositySource
    Source: source82
    - selecting cells using cellZone cz_solid_82
    - selected 2343 cell(s) with volume 0.00214609
Porosity region source82:
    selecting model: DarcyForchheimer
    creating porous zone: cz_solid_82
Selecting finite volume options model type explicitPorositySource
    Source: source83
    - selecting cells using cellZone cz_solid_83
    - selected 2093 cell(s) with volume 0.00214171
Porosity region source83:
    selecting model: DarcyForchheimer
    creating porous zone: cz_solid_83
Selecting finite volume options model type explicitPorositySource
    Source: source84
    - selecting cells using cellZone cz_solid_84
    - selected 2326 cell(s) with volume 0.00214536
Porosity region source84:
    selecting model: DarcyForchheimer
    creating porous zone: cz_solid_84
Selecting finite volume options model type explicitPorositySource
    Source: source85
    - selecting cells using cellZone cz_solid_85
    - selected 1877 cell(s) with volume 0.00214224
Porosity region source85:
    selecting model: DarcyForchheimer
    creating porous zone: cz_solid_85
Selecting finite volume options model type explicitPorositySource
    Source: source86
    - selecting cells using cellZone cz_solid_86
    - selected 2189 cell(s) with volume 0.00214523
Porosity region source86:
    selecting model: DarcyForchheimer
    creating porous zone: cz_solid_86
Selecting finite volume options model type explicitPorositySource
    Source: source87
    - selecting cells using cellZone cz_solid_87
    - selected 2109 cell(s) with volume 0.00214617
Porosity region source87:
    selecting model: DarcyForchheimer
    creating porous zone: cz_solid_87
Selecting finite volume options model type explicitPorositySource
    Source: source88
    - selecting cells using cellZone cz_solid_88
    - selected 1718 cell(s) with volume 0.00214447
Porosity region source88:
    selecting model: DarcyForchheimer
    creating porous zone: cz_solid_88
Selecting finite volume options model type explicitPorositySource
    Source: source89
    - selecting cells using cellZone cz_solid_89
    - selected 2091 cell(s) with volume 0.00214368
Porosity region source89:
    selecting model: DarcyForchheimer
    creating porous zone: cz_solid_89
Selecting finite volume options model type explicitPorositySource
    Source: source90
    - selecting cells using cellZone cz_solid_90
    - selected 2303 cell(s) with volume 0.00214613
Porosity region source90:
    selecting model: DarcyForchheimer
    creating porous zone: cz_solid_90
Selecting finite volume options model type explicitPorositySource
    Source: source91
    - selecting cells using cellZone cz_solid_91
    - selected 2374 cell(s) with volume 0.0021444
Porosity region source91:
    selecting model: DarcyForchheimer
    creating porous zone: cz_solid_91
Selecting finite volume options model type explicitPorositySource
    Source: source92
    - selecting cells using cellZone cz_solid_92
    - selected 2393 cell(s) with volume 0.00214474
Porosity region source92:
    selecting model: DarcyForchheimer
    creating porous zone: cz_solid_92
Selecting finite volume options model type explicitPorositySource
    Source: source93
    - selecting cells using cellZone cz_solid_93
    - selected 1991 cell(s) with volume 0.00214388
Porosity region source93:
    selecting model: DarcyForchheimer
    creating porous zone: cz_solid_93
Selecting finite volume options model type explicitPorositySource
    Source: source94
    - selecting cells using cellZone cz_solid_94
    - selected 1882 cell(s) with volume 0.00214591
Porosity region source94:
    selecting model: DarcyForchheimer
    creating porous zone: cz_solid_94
Selecting finite volume options model type explicitPorositySource
    Source: source95
    - selecting cells using cellZone cz_solid_95
    - selected 2119 cell(s) with volume 0.00214233
Porosity region source95:
    selecting model: DarcyForchheimer
    creating porous zone: cz_solid_95
Selecting finite volume options model type explicitPorositySource
    Source: source96
    - selecting cells using cellZone cz_solid_96
    - selected 2241 cell(s) with volume 0.00214273
Porosity region source96:
    selecting model: DarcyForchheimer
    creating porous zone: cz_solid_96
Selecting finite volume options model type explicitPorositySource
    Source: source97
    - selecting cells using cellZone cz_solid_97
    - selected 2361 cell(s) with volume 0.00214556
Porosity region source97:
    selecting model: DarcyForchheimer
    creating porous zone: cz_solid_97
Selecting finite volume options model type explicitPorositySource
    Source: source98
    - selecting cells using cellZone cz_solid_98
    - selected 2376 cell(s) with volume 0.00214597
Porosity region source98:
    selecting model: DarcyForchheimer
    creating porous zone: cz_solid_98
Selecting finite volume options model type explicitPorositySource
    Source: source99
    - selecting cells using cellZone cz_solid_99
    - selected 1797 cell(s) with volume 0.00214048
Porosity region source99:
    selecting model: DarcyForchheimer
    creating porous zone: cz_solid_99

Starting time loop

forces porousforces:
--> FOAM Warning : 
    From function Foam::labelHashSet Foam::polyBoundaryMesh::patchSet(const Foam::UList<Foam::wordRe>&, bool, bool) const
    in file meshes/polyMesh/polyBoundaryMesh/polyBoundaryMesh.C at line 798
    Cannot find any patch or group names matching solid_to_fluid
    Including porosity effects


surfaceFieldValue massFlowAtFilter_0:
    total faces  = 1950
    total area   = 0.101734




surfaceFieldValue massFlowAtFilter_1:
    total faces  = 1802
    total area   = 0.101675




surfaceFieldValue massFlowAtFilter_2:
    total faces  = 1953
    total area   = 0.101718




surfaceFieldValue massFlowAtFilter_3:
    total faces  = 1690
    total area   = 0.101676




surfaceFieldValue massFlowAtFilter_4:
    total faces  = 1822
    total area   = 0.101821




surfaceFieldValue massFlowAtFilter_5:
    total faces  = 1697
    total area   = 0.101784




surfaceFieldValue massFlowAtFilter_6:
    total faces  = 1814
    total area   = 0.101864




surfaceFieldValue massFlowAtFilter_7:
    total faces  = 1867
    total area   = 0.101728




surfaceFieldValue massFlowAtFilter_8:
    total faces  = 1711
    total area   = 0.101702




surfaceFieldValue massFlowAtFilter_9:
    total faces  = 1672
    total area   = 0.101728




surfaceFieldValue massFlowAtFilter_10:
    total faces  = 1868
    total area   = 0.10175




surfaceFieldValue massFlowAtFilter_11:
    total faces  = 1795
    total area   = 0.101721




surfaceFieldValue massFlowAtFilter_12:
    total faces  = 1844
    total area   = 0.101731




surfaceFieldValue massFlowAtFilter_13:
    total faces  = 1658
    total area   = 0.101736




surfaceFieldValue massFlowAtFilter_14:
    total faces  = 1794
    total area   = 0.10173




surfaceFieldValue massFlowAtFilter_15:
    total faces  = 1777
    total area   = 0.101756




surfaceFieldValue massFlowAtFilter_16:
    total faces  = 1747
    total area   = 0.101685




surfaceFieldValue massFlowAtFilter_17:
    total faces  = 1833
    total area   = 0.101825




surfaceFieldValue massFlowAtFilter_18:
    total faces  = 1834
    total area   = 0.101815




surfaceFieldValue massFlowAtFilter_19:
    total faces  = 1612
    total area   = 0.10165




surfaceFieldValue massFlowAtFilter_20:
    total faces  = 1932
    total area   = 0.101601




surfaceFieldValue massFlowAtFilter_21:
    total faces  = 1782
    total area   = 0.101633




surfaceFieldValue massFlowAtFilter_22:
    total faces  = 1932
    total area   = 0.101628




surfaceFieldValue massFlowAtFilter_23:
    total faces  = 1676
    total area   = 0.101631




surfaceFieldValue massFlowAtFilter_24:
    total faces  = 1806
    total area   = 0.101633




surfaceFieldValue massFlowAtFilter_25:
    total faces  = 1686
    total area   = 0.101575




surfaceFieldValue massFlowAtFilter_26:
    total faces  = 1798
    total area   = 0.101819




surfaceFieldValue massFlowAtFilter_27:
    total faces  = 1852
    total area   = 0.101629




surfaceFieldValue massFlowAtFilter_28:
    total faces  = 1698
    total area   = 0.101667




surfaceFieldValue massFlowAtFilter_29:
    total faces  = 1652
    total area   = 0.10168




surfaceFieldValue massFlowAtFilter_30:
    total faces  = 1858
    total area   = 0.10173




surfaceFieldValue massFlowAtFilter_31:
    total faces  = 1784
    total area   = 0.101693




surfaceFieldValue massFlowAtFilter_32:
    total faces  = 1822
    total area   = 0.101711




surfaceFieldValue massFlowAtFilter_33:
    total faces  = 1638
    total area   = 0.101708




surfaceFieldValue massFlowAtFilter_34:
    total faces  = 1784
    total area   = 0.101692




surfaceFieldValue massFlowAtFilter_35:
    total faces  = 1758
    total area   = 0.10162




surfaceFieldValue massFlowAtFilter_36:
    total faces  = 1736
    total area   = 0.101648




surfaceFieldValue massFlowAtFilter_37:
    total faces  = 1818
    total area   = 0.101634




surfaceFieldValue massFlowAtFilter_38:
    total faces  = 1812
    total area   = 0.101667




surfaceFieldValue massFlowAtFilter_39:
    total faces  = 1598
    total area   = 0.10159




surfaceFieldValue massFlowAtFilter_40:
    total faces  = 1980
    total area   = 0.10173




surfaceFieldValue massFlowAtFilter_41:
    total faces  = 1826
    total area   = 0.101674




surfaceFieldValue massFlowAtFilter_42:
    total faces  = 1980
    total area   = 0.101711




surfaceFieldValue massFlowAtFilter_43:
    total faces  = 1720
    total area   = 0.101672




surfaceFieldValue massFlowAtFilter_44:
    total faces  = 1852
    total area   = 0.101822




surfaceFieldValue massFlowAtFilter_45:
    total faces  = 1733
    total area   = 0.101804




surfaceFieldValue massFlowAtFilter_46:
    total faces  = 1844
    total area   = 0.10192




surfaceFieldValue massFlowAtFilter_47:
    total faces  = 1900
    total area   = 0.101726




surfaceFieldValue massFlowAtFilter_48:
    total faces  = 1744
    total area   = 0.101693




surfaceFieldValue massFlowAtFilter_49:
    total faces  = 1696
    total area   = 0.101732




surfaceFieldValue massFlowAtFilter_50:
    total faces  = 1904
    total area   = 0.101748




surfaceFieldValue massFlowAtFilter_51:
    total faces  = 1828
    total area   = 0.101714




surfaceFieldValue massFlowAtFilter_52:
    total faces  = 1868
    total area   = 0.101736




surfaceFieldValue massFlowAtFilter_53:
    total faces  = 1682
    total area   = 0.101736




surfaceFieldValue massFlowAtFilter_54:
    total faces  = 1830
    total area   = 0.101713




surfaceFieldValue massFlowAtFilter_55:
    total faces  = 1804
    total area   = 0.101744




surfaceFieldValue massFlowAtFilter_56:
    total faces  = 1780
    total area   = 0.101678




surfaceFieldValue massFlowAtFilter_57:
    total faces  = 1863
    total area   = 0.101851




surfaceFieldValue massFlowAtFilter_58:
    total faces  = 1858
    total area   = 0.101819




surfaceFieldValue massFlowAtFilter_59:
    total faces  = 1642
    total area   = 0.101649




surfaceFieldValue massFlowAtFilter_60:
    total faces  = 1980
    total area   = 0.101735




surfaceFieldValue massFlowAtFilter_61:
    total faces  = 1826
    total area   = 0.101673




surfaceFieldValue massFlowAtFilter_62:
    total faces  = 1980
    total area   = 0.101688




surfaceFieldValue massFlowAtFilter_63:
    total faces  = 1714
    total area   = 0.10166




surfaceFieldValue massFlowAtFilter_64:
    total faces  = 1849
    total area   = 0.1018




surfaceFieldValue massFlowAtFilter_65:
    total faces  = 1718
    total area   = 0.101771




surfaceFieldValue massFlowAtFilter_66:
    total faces  = 1849
    total area   = 0.101821




surfaceFieldValue massFlowAtFilter_67:
    total faces  = 1910
    total area   = 0.101726




surfaceFieldValue massFlowAtFilter_68:
    total faces  = 1736
    total area   = 0.101708




surfaceFieldValue massFlowAtFilter_69:
    total faces  = 1693
    total area   = 0.101725




surfaceFieldValue massFlowAtFilter_70:
    total faces  = 1904
    total area   = 0.101728




surfaceFieldValue massFlowAtFilter_71:
    total faces  = 1828
    total area   = 0.101716




surfaceFieldValue massFlowAtFilter_72:
    total faces  = 1865
    total area   = 0.101724




surfaceFieldValue massFlowAtFilter_73:
    total faces  = 1673
    total area   = 0.101728




surfaceFieldValue massFlowAtFilter_74:
    total faces  = 1828
    total area   = 0.101712




surfaceFieldValue massFlowAtFilter_75:
    total faces  = 1805
    total area   = 0.101749




surfaceFieldValue massFlowAtFilter_76:
    total faces  = 1771
    total area   = 0.101671




surfaceFieldValue massFlowAtFilter_77:
    total faces  = 1863
    total area   = 0.101816




surfaceFieldValue massFlowAtFilter_78:
    total faces  = 1861
    total area   = 0.101809




surfaceFieldValue massFlowAtFilter_79:
    total faces  = 1630
    total area   = 0.101642




surfaceFieldValue massFlowAtFilter_80:
    total faces  = 1980
    total area   = 0.101658




surfaceFieldValue massFlowAtFilter_81:
    total faces  = 1832
    total area   = 0.101551




surfaceFieldValue massFlowAtFilter_82:
    total faces  = 1985
    total area   = 0.101591




surfaceFieldValue massFlowAtFilter_83:
    total faces  = 1719
    total area   = 0.101553




surfaceFieldValue massFlowAtFilter_84:
    total faces  = 1849
    total area   = 0.101643




surfaceFieldValue massFlowAtFilter_85:
    total faces  = 1724
    total area   = 0.101641




surfaceFieldValue massFlowAtFilter_86:
    total faces  = 1856
    total area   = 0.101607




surfaceFieldValue massFlowAtFilter_87:
    total faces  = 1917
    total area   = 0.10162




surfaceFieldValue massFlowAtFilter_88:
    total faces  = 1743
    total area   = 0.101591




surfaceFieldValue massFlowAtFilter_89:
    total faces  = 1699
    total area   = 0.101633




surfaceFieldValue massFlowAtFilter_90:
    total faces  = 1910
    total area   = 0.101649




surfaceFieldValue massFlowAtFilter_91:
    total faces  = 1833
    total area   = 0.101607




surfaceFieldValue massFlowAtFilter_92:
    total faces  = 1865
    total area   = 0.101658




surfaceFieldValue massFlowAtFilter_93:
    total faces  = 1679
    total area   = 0.101635




surfaceFieldValue massFlowAtFilter_94:
    total faces  = 1835
    total area   = 0.101608




surfaceFieldValue massFlowAtFilter_95:
    total faces  = 1805
    total area   = 0.101627




surfaceFieldValue massFlowAtFilter_96:
    total faces  = 1776
    total area   = 0.101586




surfaceFieldValue massFlowAtFilter_97:
    total faces  = 1863
    total area   = 0.101645




surfaceFieldValue massFlowAtFilter_98:
    total faces  = 1867
    total area   = 0.101635




surfaceFieldValue massFlowAtFilter_99:
    total faces  = 1636
    total area   = 0.101551


Time = 1

DILUPBiCG:  Solving for Ux, Initial residual = 1, Final residual = 1.64432e-06, No Iterations 6
DILUPBiCG:  Solving for Uy, Initial residual = 1, Final residual = 3.48111e-06, No Iterations 7
DILUPBiCG:  Solving for Uz, Initial residual = 1, Final residual = 5.49447e-06, No Iterations 6
DICPCG:  Solving for p, Initial residual = 1, Final residual = 0.0982704, No Iterations 338
DICPCG:  Solving for p, Initial residual = 0.0033376, Final residual = 0.000231047, No Iterations 4
DICPCG:  Solving for p, Initial residual = 0.000463674, Final residual = 4.56908e-05, No Iterations 29
time step continuity errors : sum local = 0.0512371, global = -0.000656002, cumulative = -0.000656002
DILUPBiCG:  Solving for epsilon, Initial residual = 0.0522024, Final residual = 9.84319e-06, No Iterations 3
DILUPBiCG:  Solving for k, Initial residual = 1, Final residual = 8.38406e-07, No Iterations 6
ExecutionTime = 6.78 s  ClockTime = 7 s

Time = 2

DILUPBiCG:  Solving for Ux, Initial residual = 0.000132378, Final residual = 3.42052e-06, No Iterations 2
DILUPBiCG:  Solving for Uy, Initial residual = 5.7354e-05, Final residual = 6.90675e-06, No Iterations 2
DILUPBiCG:  Solving for Uz, Initial residual = 0.000120426, Final residual = 2.37575e-06, No Iterations 2
DICPCG:  Solving for p, Initial residual = 0.0121282, Final residual = 0.00118105, No Iterations 123
DICPCG:  Solving for p, Initial residual = 0.00558259, Final residual = 0.00054196, No Iterations 266
DICPCG:  Solving for p, Initial residual = 0.00547818, Final residual = 0.000521538, No Iterations 18
time step continuity errors : sum local = 0.0651764, global = -0.000911652, cumulative = -0.00156765
DILUPBiCG:  Solving for epsilon, Initial residual = 0.013627, Final residual = 7.58882e-07, No Iterations 4
DILUPBiCG:  Solving for k, Initial residual = 0.522901, Final residual = 6.05165e-07, No Iterations 6
ExecutionTime = 11.53 s  ClockTime = 11 s

Time = 3

DILUPBiCG:  Solving for Ux, Initial residual = 1.90455e-05, Final residual = 3.25641e-06, No Iterations 1
DILUPBiCG:  Solving for Uy, Initial residual = 1.16812e-05, Final residual = 2.23032e-06, No Iterations 1
DILUPBiCG:  Solving for Uz, Initial residual = 2.89594e-05, Final residual = 8.77645e-06, No Iterations 1
DICPCG:  Solving for p, Initial residual = 0.0188975, Final residual = 0.0018271, No Iterations 319
DICPCG:  Solving for p, Initial residual = 0.00711722, Final residual = 0.0005665, No Iterations 4
DICPCG:  Solving for p, Initial residual = 0.000983027, Final residual = 9.81937e-05, No Iterations 50
time step continuity errors : sum local = 0.0568287, global = -8.0682e-06, cumulative = -0.00157572
DILUPBiCG:  Solving for epsilon, Initial residual = 0.0176056, Final residual = 1.1097e-06, No Iterations 4
DILUPBiCG:  Solving for k, Initial residual = 0.261602, Final residual = 3.03565e-07, No Iterations 6
ExecutionTime = 15.88 s  ClockTime = 16 s

Time = 4

DILUPBiCG:  Solving for Ux, Initial residual = 5.48444e-06, Final residual = 5.48444e-06, No Iterations 0
DILUPBiCG:  Solving for Uy, Initial residual = 2.06068e-06, Final residual = 2.06068e-06, No Iterations 0
DILUPBiCG:  Solving for Uz, Initial residual = 6.98072e-06, Final residual = 6.98072e-06, No Iterations 0
DICPCG:  Solving for p, Initial residual = 0.0733687, Final residual = 0.00708618, No Iterations 319
DICPCG:  Solving for p, Initial residual = 0.00514624, Final residual = 0.000386905, No Iterations 4
DICPCG:  Solving for p, Initial residual = 0.000693278, Final residual = 6.91007e-05, No Iterations 47
time step continuity errors : sum local = 0.0366917, global = 0.000117611, cumulative = -0.00145811
DILUPBiCG:  Solving for epsilon, Initial residual = 0.0165465, Final residual = 6.61901e-06, No Iterations 3
DILUPBiCG:  Solving for k, Initial residual = 0.15276, Final residual = 7.61272e-07, No Iterations 5
ExecutionTime = 20.11 s  ClockTime = 20 s

Time = 5

DILUPBiCG:  Solving for Ux, Initial residual = 1.57503e-05, Final residual = 3.14579e-06, No Iterations 1
DILUPBiCG:  Solving for Uy, Initial residual = 8.83009e-06, Final residual = 8.83009e-06, No Iterations 0
DILUPBiCG:  Solving for Uz, Initial residual = 1.48456e-05, Final residual = 3.59433e-06, No Iterations 1
DICPCG:  Solving for p, Initial residual = 0.0206742, Final residual = 0.0020612, No Iterations 47
DICPCG:  Solving for p, Initial residual = 0.00629707, Final residual = 0.000626226, No Iterations 284
DICPCG:  Solving for p, Initial residual = 0.00208264, Final residual = 0.000206383, No Iterations 4
time step continuity errors : sum local = 0.0690475, global = -0.000518735, cumulative = -0.00197685
DILUPBiCG:  Solving for epsilon, Initial residual = 0.0139125, Final residual = 3.92368e-06, No Iterations 3
DILUPBiCG:  Solving for k, Initial residual = 0.109088, Final residual = 4.52839e-07, No Iterations 5
ExecutionTime = 24.08 s  ClockTime = 24 s

Time = 6

DILUPBiCG:  Solving for Ux, Initial residual = 1.96042e-05, Final residual = 4.51151e-06, No Iterations 1
DILUPBiCG:  Solving for Uy, Initial residual = 1.29451e-05, Final residual = 2.56453e-06, No Iterations 1
DILUPBiCG:  Solving for Uz, Initial residual = 1.65669e-05, Final residual = 5.06969e-06, No Iterations 1
DICPCG:  Solving for p, Initial residual = 0.0244611, Final residual = 0.00237917, No Iterations 310
DICPCG:  Solving for p, Initial residual = 0.0079831, Final residual = 0.000784137, No Iterations 6
DICPCG:  Solving for p, Initial residual = 0.001201, Final residual = 0.000113522, No Iterations 58
time step continuity errors : sum local = 0.0484537, global = -0.000435301, cumulative = -0.00241215
DILUPBiCG:  Solving for epsilon, Initial residual = 0.0129072, Final residual = 3.89516e-06, No Iterations 3
DILUPBiCG:  Solving for k, Initial residual = 0.0925384, Final residual = 4.17476e-07, No Iterations 5
ExecutionTime = 28.41 s  ClockTime = 28 s

Time = 7

DILUPBiCG:  Solving for Ux, Initial residual = 1.31595e-05, Final residual = 4.42592e-07, No Iterations 2
DILUPBiCG:  Solving for Uy, Initial residual = 4.20009e-06, Final residual = 4.20009e-06, No Iterations 0
DILUPBiCG:  Solving for Uz, Initial residual = 8.42618e-06, Final residual = 8.42618e-06, No Iterations 0
DICPCG:  Solving for p, Initial residual = 0.0851263, Final residual = 0.0084382, No Iterations 314
DICPCG:  Solving for p, Initial residual = 0.00470844, Final residual = 0.000456777, No Iterations 4
DICPCG:  Solving for p, Initial residual = 0.000680359, Final residual = 6.47347e-05, No Iterations 56
time step continuity errors : sum local = 0.0302359, global = -2.98119e-05, cumulative = -0.00244196
DILUPBiCG:  Solving for epsilon, Initial residual = 0.0116832, Final residual = 2.79664e-06, No Iterations 3
DILUPBiCG:  Solving for k, Initial residual = 0.0757518, Final residual = 6.76213e-07, No Iterations 5
ExecutionTime = 32.71 s  ClockTime = 33 s

Time = 8

DILUPBiCG:  Solving for Ux, Initial residual = 1.70178e-05, Final residual = 3.37291e-06, No Iterations 1
DILUPBiCG:  Solving for Uy, Initial residual = 1.11001e-05, Final residual = 2.18272e-06, No Iterations 1
DILUPBiCG:  Solving for Uz, Initial residual = 1.6924e-05, Final residual = 3.94682e-06, No Iterations 1
DICPCG:  Solving for p, Initial residual = 0.0265508, Final residual = 0.00264144, No Iterations 66
DICPCG:  Solving for p, Initial residual = 0.00757733, Final residual = 0.000746906, No Iterations 86
DICPCG:  Solving for p, Initial residual = 0.0019185, Final residual = 0.000185978, No Iterations 260
time step continuity errors : sum local = 0.0222527, global = 0.000124605, cumulative = -0.00231735
DILUPBiCG:  Solving for epsilon, Initial residual = 0.0117616, Final residual = 6.19995e-07, No Iterations 4
DILUPBiCG:  Solving for k, Initial residual = 0.0630928, Final residual = 8.44916e-07, No Iterations 5
ExecutionTime = 37.38 s  ClockTime = 37 s

Time = 9

DILUPBiCG:  Solving for Ux, Initial residual = 6.01221e-06, Final residual = 6.01221e-06, No Iterations 0
DILUPBiCG:  Solving for Uy, Initial residual = 6.35663e-06, Final residual = 6.35663e-06, No Iterations 0
DILUPBiCG:  Solving for Uz, Initial residual = 7.93933e-06, Final residual = 7.93933e-06, No Iterations 0
DICPCG:  Solving for p, Initial residual = 0.0210769, Final residual = 0.0020916, No Iterations 111
DICPCG:  Solving for p, Initial residual = 0.0076867, Final residual = 0.000744444, No Iterations 276
DICPCG:  Solving for p, Initial residual = 0.0175178, Final residual = 0.00171647, No Iterations 5
time step continuity errors : sum local = 0.0443468, global = 0.000326129, cumulative = -0.00199123
DILUPBiCG:  Solving for epsilon, Initial residual = 0.0110005, Final residual = 4.54406e-06, No Iterations 3
DILUPBiCG:  Solving for k, Initial residual = 0.0560381, Final residual = 8.99603e-07, No Iterations 5
ExecutionTime = 41.76 s  ClockTime = 42 s

Time = 10

DILUPBiCG:  Solving for Ux, Initial residual = 3.66839e-06, Final residual = 3.66839e-06, No Iterations 0
DILUPBiCG:  Solving for Uy, Initial residual = 3.81426e-06, Final residual = 3.81426e-06, No Iterations 0
DILUPBiCG:  Solving for Uz, Initial residual = 4.64651e-06, Final residual = 4.64651e-06, No Iterations 0
DICPCG:  Solving for p, Initial residual = 0.0194668, Final residual = 0.00190469, No Iterations 312
DICPCG:  Solving for p, Initial residual = 0.00916828, Final residual = 0.000891308, No Iterations 6
DICPCG:  Solving for p, Initial residual = 0.00138647, Final residual = 0.000132473, No Iterations 57
time step continuity errors : sum local = 0.0120141, global = 7.95333e-05, cumulative = -0.00191169
DILUPBiCG:  Solving for epsilon, Initial residual = 0.0103507, Final residual = 4.55236e-06, No Iterations 3
DILUPBiCG:  Solving for k, Initial residual = 0.0509955, Final residual = 5.97477e-08, No Iterations 6
ExecutionTime = 46.03 s  ClockTime = 46 s

Time = 11

DILUPBiCG:  Solving for Ux, Initial residual = 5.17702e-06, Final residual = 5.17702e-06, No Iterations 0
DILUPBiCG:  Solving for Uy, Initial residual = 1.34595e-06, Final residual = 1.34595e-06, No Iterations 0
DILUPBiCG:  Solving for Uz, Initial residual = 4.70605e-06, Final residual = 4.70605e-06, No Iterations 0
DICPCG:  Solving for p, Initial residual = 0.0327301, Final residual = 0.00324699, No Iterations 316
DICPCG:  Solving for p, Initial residual = 0.00524386, Final residual = 0.000518013, No Iterations 4
DICPCG:  Solving for p, Initial residual = 0.000763828, Final residual = 7.5492e-05, No Iterations 56
time step continuity errors : sum local = 0.0082381, global = 1.82006e-05, cumulative = -0.00189349
DILUPBiCG:  Solving for epsilon, Initial residual = 0.00970826, Final residual = 4.12704e-06, No Iterations 3
DILUPBiCG:  Solving for k, Initial residual = 0.0470751, Final residual = 6.3282e-08, No Iterations 6
ExecutionTime = 50.28 s  ClockTime = 50 s

Time = 12

DILUPBiCG:  Solving for Ux, Initial residual = 6.42954e-06, Final residual = 6.42954e-06, No Iterations 0
DILUPBiCG:  Solving for Uy, Initial residual = 1.36036e-06, Final residual = 1.36036e-06, No Iterations 0
DILUPBiCG:  Solving for Uz, Initial residual = 5.57105e-06, Final residual = 5.57105e-06, No Iterations 0
DICPCG:  Solving for p, Initial residual = 0.0496727, Final residual = 0.00484807, No Iterations 300
DICPCG:  Solving for p, Initial residual = 0.00386647, Final residual = 0.00037311, No Iterations 29
DICPCG:  Solving for p, Initial residual = 0.000788854, Final residual = 7.71543e-05, No Iterations 46
time step continuity errors : sum local = 0.00689368, global = -2.54897e-05, cumulative = -0.00191898
DILUPBiCG:  Solving for epsilon, Initial residual = 0.00916067, Final residual = 3.95026e-06, No Iterations 3
DILUPBiCG:  Solving for k, Initial residual = 0.0439614, Final residual = 6.53752e-08, No Iterations 6
ExecutionTime = 54.56 s  ClockTime = 54 s

Time = 13

DILUPBiCG:  Solving for Ux, Initial residual = 6.13357e-06, Final residual = 6.13357e-06, No Iterations 0
DILUPBiCG:  Solving for Uy, Initial residual = 2.3355e-06, Final residual = 2.3355e-06, No Iterations 0
DILUPBiCG:  Solving for Uz, Initial residual = 5.74806e-06, Final residual = 5.74806e-06, No Iterations 0
DICPCG:  Solving for p, Initial residual = 0.025448, Final residual = 0.00252996, No Iterations 67
DICPCG:  Solving for p, Initial residual = 0.00754039, Final residual = 0.000743854, No Iterations 77
DICPCG:  Solving for p, Initial residual = 0.00202818, Final residual = 0.000200222, No Iterations 263
time step continuity errors : sum local = 0.00797104, global = -8.57158e-05, cumulative = -0.0020047
DILUPBiCG:  Solving for epsilon, Initial residual = 0.0087949, Final residual = 3.99265e-06, No Iterations 3
DILUPBiCG:  Solving for k, Initial residual = 0.0414163, Final residual = 7.45112e-08, No Iterations 6
ExecutionTime = 59.08 s  ClockTime = 59 s

Time = 14

DILUPBiCG:  Solving for Ux, Initial residual = 4.56937e-06, Final residual = 4.56937e-06, No Iterations 0
DILUPBiCG:  Solving for Uy, Initial residual = 2.56562e-06, Final residual = 2.56562e-06, No Iterations 0
DILUPBiCG:  Solving for Uz, Initial residual = 4.64071e-06, Final residual = 4.64071e-06, No Iterations 0
DICPCG:  Solving for p, Initial residual = 0.0212574, Final residual = 0.00208062, No Iterations 104
DICPCG:  Solving for p, Initial residual = 0.00751986, Final residual = 0.000716946, No Iterations 274
DICPCG:  Solving for p, Initial residual = 0.0241184, Final residual = 0.00231239, No Iterations 7
time step continuity errors : sum local = 0.014247, global = -0.000119759, cumulative = -0.00212446
DILUPBiCG:  Solving for epsilon, Initial residual = 0.00858995, Final residual = 4.4779e-06, No Iterations 3
DILUPBiCG:  Solving for k, Initial residual = 0.0391629, Final residual = 1.32148e-07, No Iterations 6
ExecutionTime = 63.45 s  ClockTime = 63 s

Time = 15

DILUPBiCG:  Solving for Ux, Initial residual = 2.96834e-06, Final residual = 2.96834e-06, No Iterations 0
DILUPBiCG:  Solving for Uy, Initial residual = 1.98512e-06, Final residual = 1.98512e-06, No Iterations 0
DILUPBiCG:  Solving for Uz, Initial residual = 3.20081e-06, Final residual = 3.20081e-06, No Iterations 0
DICPCG:  Solving for p, Initial residual = 0.0210522, Final residual = 0.00202882, No Iterations 313
DICPCG:  Solving for p, Initial residual = 0.0107208, Final residual = 0.00102936, No Iterations 13
DICPCG:  Solving for p, Initial residual = 0.00174134, Final residual = 0.000164259, No Iterations 58
time step continuity errors : sum local = 0.00510303, global = -6.51408e-05, cumulative = -0.0021896
DILUPBiCG:  Solving for epsilon, Initial residual = 0.00851606, Final residual = 6.85364e-06, No Iterations 3
DILUPBiCG:  Solving for k, Initial residual = 0.0370652, Final residual = 4.26819e-07, No Iterations 5
ExecutionTime = 67.78 s  ClockTime = 68 s

Time = 16

DILUPBiCG:  Solving for Ux, Initial residual = 2.60217e-06, Final residual = 2.60217e-06, No Iterations 0
DILUPBiCG:  Solving for Uy, Initial residual = 1.00342e-06, Final residual = 1.00342e-06, No Iterations 0
DILUPBiCG:  Solving for Uz, Initial residual = 2.70639e-06, Final residual = 2.70639e-06, No Iterations 0
DICPCG:  Solving for p, Initial residual = 0.0308555, Final residual = 0.00294441, No Iterations 316
DICPCG:  Solving for p, Initial residual = 0.00577892, Final residual = 0.000560909, No Iterations 5
DICPCG:  Solving for p, Initial residual = 0.000852817, Final residual = 8.13589e-05, No Iterations 59
time step continuity errors : sum local = 0.00372294, global = -3.88448e-05, cumulative = -0.00222844
DILUPBiCG:  Solving for epsilon, Initial residual = 0.00847715, Final residual = 4.53075e-07, No Iterations 4
DILUPBiCG:  Solving for k, Initial residual = 0.0350614, Final residual = 4.97015e-07, No Iterations 5
ExecutionTime = 72.08 s  ClockTime = 72 s

Time = 17

DILUPBiCG:  Solving for Ux, Initial residual = 2.80883e-06, Final residual = 2.80883e-06, No Iterations 0
DILUPBiCG:  Solving for Uy, Initial residual = 5.26402e-07, Final residual = 5.26402e-07, No Iterations 0
DILUPBiCG:  Solving for Uz, Initial residual = 2.88645e-06, Final residual = 2.88645e-06, No Iterations 0
DICPCG:  Solving for p, Initial residual = 0.0586209, Final residual = 0.00566121, No Iterations 310
DICPCG:  Solving for p, Initial residual = 0.00383861, Final residual = 0.000380891, No Iterations 18
DICPCG:  Solving for p, Initial residual = 0.000704445, Final residual = 6.57511e-05, No Iterations 43
time step continuity errors : sum local = 0.00287452, global = -1.62132e-05, cumulative = -0.00224466
DILUPBiCG:  Solving for epsilon, Initial residual = 0.00834605, Final residual = 4.24443e-07, No Iterations 4
DILUPBiCG:  Solving for k, Initial residual = 0.0331599, Final residual = 1.48156e-08, No Iterations 6
ExecutionTime = 76.35 s  ClockTime = 76 s

Time = 18

DILUPBiCG:  Solving for Ux, Initial residual = 2.66676e-06, Final residual = 2.66676e-06, No Iterations 0
DILUPBiCG:  Solving for Uy, Initial residual = 9.59933e-07, Final residual = 9.59933e-07, No Iterations 0
DILUPBiCG:  Solving for Uz, Initial residual = 2.99487e-06, Final residual = 2.99487e-06, No Iterations 0
DICPCG:  Solving for p, Initial residual = 0.0223177, Final residual = 0.00219277, No Iterations 47
DICPCG:  Solving for p, Initial residual = 0.00557035, Final residual = 0.000552065, No Iterations 288
DICPCG:  Solving for p, Initial residual = 0.00186413, Final residual = 0.000176497, No Iterations 5
time step continuity errors : sum local = 0.00540111, global = 2.84956e-05, cumulative = -0.00221616
DILUPBiCG:  Solving for epsilon, Initial residual = 0.00817442, Final residual = 4.15517e-07, No Iterations 4
DILUPBiCG:  Solving for k, Initial residual = 0.0314293, Final residual = 4.88783e-07, No Iterations 5
ExecutionTime = 80.32 s  ClockTime = 80 s

Time = 19

DILUPBiCG:  Solving for Ux, Initial residual = 2.19045e-06, Final residual = 2.19045e-06, No Iterations 0
DILUPBiCG:  Solving for Uy, Initial residual = 1.13269e-06, Final residual = 1.13269e-06, No Iterations 0
DILUPBiCG:  Solving for Uz, Initial residual = 2.73752e-06, Final residual = 2.73752e-06, No Iterations 0
DICPCG:  Solving for p, Initial residual = 0.0173455, Final residual = 0.00171804, No Iterations 97
DICPCG:  Solving for p, Initial residual = 0.00548653, Final residual = 0.00054259, No Iterations 275
DICPCG:  Solving for p, Initial residual = 0.00321308, Final residual = 0.000319295, No Iterations 25
time step continuity errors : sum local = 0.00437313, global = -1.27725e-05, cumulative = -0.00222893
DILUPBiCG:  Solving for epsilon, Initial residual = 0.00800785, Final residual = 4.30143e-07, No Iterations 4
DILUPBiCG:  Solving for k, Initial residual = 0.0298999, Final residual = 2.93132e-07, No Iterations 5
ExecutionTime = 84.78 s  ClockTime = 85 s

Time = 20

DILUPBiCG:  Solving for Ux, Initial residual = 1.7889e-06, Final residual = 1.7889e-06, No Iterations 0
DILUPBiCG:  Solving for Uy, Initial residual = 9.84824e-07, Final residual = 9.84824e-07, No Iterations 0
DILUPBiCG:  Solving for Uz, Initial residual = 2.36236e-06, Final residual = 2.36236e-06, No Iterations 0
DICPCG:  Solving for p, Initial residual = 0.015878, Final residual = 0.00148617, No Iterations 313
DICPCG:  Solving for p, Initial residual = 0.0264434, Final residual = 0.00248971, No Iterations 13
DICPCG:  Solving for p, Initial residual = 0.00431983, Final residual = 0.000413217, No Iterations 58
time step continuity errors : sum local = 0.00198681, global = 2.51417e-05, cumulative = -0.00220379
DILUPBiCG:  Solving for epsilon, Initial residual = 0.00786622, Final residual = 9.29444e-06, No Iterations 3
DILUPBiCG:  Solving for k, Initial residual = 0.0285778, Final residual = 2.29616e-07, No Iterations 5
ExecutionTime = 89.09 s  ClockTime = 89 s

forces porousforces write:
    sum of forces:
        pressure : (0 0 0)
        viscous  : (0 0 0)
        porous   : (88346.6 -1.83655e-13 68375.6)
    sum of moments:
        pressure : (0 0 0)
        viscous  : (0 0 0)
        porous   : (61012.5 11653.8 -77284.6)

volFieldValue volFieldValue_0 write:
    volIntegrate(cz_solid_0) of U = (1.85193e-09 -5.93995e-09 -4.51396e-09)

surfaceFieldValue massFlowAtFilter_0 write:
    sum(fz_solid_0) of phi = 4.39703e-06

volFieldValue volFieldValue_1 write:
    volIntegrate(cz_solid_1) of U = (4.02186e-10 -5.278e-09 -3.99644e-09)

surfaceFieldValue massFlowAtFilter_1 write:
    sum(fz_solid_1) of phi = 3.18728e-05

volFieldValue volFieldValue_2 write:
    volIntegrate(cz_solid_2) of U = (-7.39333e-10 -5.17194e-09 -3.41207e-09)

surfaceFieldValue massFlowAtFilter_2 write:
    sum(fz_solid_2) of phi = 2.50574e-06

volFieldValue volFieldValue_3 write:
    volIntegrate(cz_solid_3) of U = (-1.66231e-09 -4.9342e-09 -2.60749e-09)

surfaceFieldValue massFlowAtFilter_3 write:
    sum(fz_solid_3) of phi = -3.51362e-05

volFieldValue volFieldValue_4 write:
    volIntegrate(cz_solid_4) of U = (-2.4549e-09 -4.87208e-09 -1.80251e-09)

surfaceFieldValue massFlowAtFilter_4 write:
    sum(fz_solid_4) of phi = -2.38885e-05

volFieldValue volFieldValue_5 write:
    volIntegrate(cz_solid_5) of U = (-3.13677e-09 -4.88513e-09 -8.81846e-10)

surfaceFieldValue massFlowAtFilter_5 write:
    sum(fz_solid_5) of phi = -5.65063e-05

volFieldValue volFieldValue_6 write:
    volIntegrate(cz_solid_6) of U = (-3.73978e-09 -4.9861e-09 2.02786e-10)

surfaceFieldValue massFlowAtFilter_6 write:
    sum(fz_solid_6) of phi = -3.55589e-05

volFieldValue volFieldValue_7 write:
    volIntegrate(cz_solid_7) of U = (-4.08836e-09 -5.31931e-09 1.63409e-09)

surfaceFieldValue massFlowAtFilter_7 write:
    sum(fz_solid_7) of phi = -4.09691e-05

volFieldValue volFieldValue_8 write:
    volIntegrate(cz_solid_8) of U = (-4.00111e-09 -5.89213e-09 3.14758e-09)

surfaceFieldValue massFlowAtFilter_8 write:
    sum(fz_solid_8) of phi = 1.64219e-05

volFieldValue volFieldValue_9 write:
    volIntegrate(cz_solid_9) of U = (-3.30462e-09 -6.52067e-09 4.78347e-09)

surfaceFieldValue massFlowAtFilter_9 write:
    sum(fz_solid_9) of phi = -7.45222e-05

volFieldValue volFieldValue_10 write:
    volIntegrate(cz_solid_10) of U = (-1.77353e-09 -7.52175e-09 6.30756e-09)

surfaceFieldValue massFlowAtFilter_10 write:
    sum(fz_solid_10) of phi = 2.33166e-05

volFieldValue volFieldValue_11 write:
    volIntegrate(cz_solid_11) of U = (9.56817e-11 -8.46673e-09 7.27487e-09)

surfaceFieldValue massFlowAtFilter_11 write:
    sum(fz_solid_11) of phi = -5.99635e-05

volFieldValue volFieldValue_12 write:
    volIntegrate(cz_solid_12) of U = (2.63793e-09 -9.60606e-09 7.63458e-09)

surfaceFieldValue massFlowAtFilter_12 write:
    sum(fz_solid_12) of phi = -0.000198509

volFieldValue volFieldValue_13 write:
    volIntegrate(cz_solid_13) of U = (5.22758e-09 -1.03357e-08 6.91139e-09)

surfaceFieldValue massFlowAtFilter_13 write:
    sum(fz_solid_13) of phi = 6.28482e-05

volFieldValue volFieldValue_14 write:
    volIntegrate(cz_solid_14) of U = (7.42498e-09 -1.10912e-08 5.25941e-09)

surfaceFieldValue massFlowAtFilter_14 write:
    sum(fz_solid_14) of phi = -8.71691e-05

volFieldValue volFieldValue_15 write:
    volIntegrate(cz_solid_15) of U = (8.72153e-09 -1.11544e-08 2.71044e-09)

surfaceFieldValue massFlowAtFilter_15 write:
    sum(fz_solid_15) of phi = 7.3737e-05

volFieldValue volFieldValue_16 write:
    volIntegrate(cz_solid_16) of U = (8.60362e-09 -1.03707e-08 -2.24401e-11)

surfaceFieldValue massFlowAtFilter_16 write:
    sum(fz_solid_16) of phi = -0.000107465

volFieldValue volFieldValue_17 write:
    volIntegrate(cz_solid_17) of U = (7.40235e-09 -9.14276e-09 -2.3738e-09)

surfaceFieldValue massFlowAtFilter_17 write:
    sum(fz_solid_17) of phi = -2.49762e-06

volFieldValue volFieldValue_18 write:
    volIntegrate(cz_solid_18) of U = (5.70667e-09 -8.02991e-09 -3.79788e-09)

surfaceFieldValue massFlowAtFilter_18 write:
    sum(fz_solid_18) of phi = 7.48454e-05

volFieldValue volFieldValue_19 write:
    volIntegrate(cz_solid_19) of U = (3.70997e-09 -6.93704e-09 -4.53341e-09)

surfaceFieldValue massFlowAtFilter_19 write:
    sum(fz_solid_19) of phi = 6.93836e-05

volFieldValue volFieldValue_20 write:
    volIntegrate(cz_solid_20) of U = (1.4777e-09 -9.78173e-09 -3.09231e-09)

surfaceFieldValue massFlowAtFilter_20 write:
    sum(fz_solid_20) of phi = -1.83802e-05

volFieldValue volFieldValue_21 write:
    volIntegrate(cz_solid_21) of U = (3.84861e-10 -8.99691e-09 -2.76068e-09)

surfaceFieldValue massFlowAtFilter_21 write:
    sum(fz_solid_21) of phi = 1.59048e-05

volFieldValue volFieldValue_22 write:
    volIntegrate(cz_solid_22) of U = (-4.51832e-10 -8.97148e-09 -2.35711e-09)

surfaceFieldValue massFlowAtFilter_22 write:
    sum(fz_solid_22) of phi = 3.27463e-06

volFieldValue volFieldValue_23 write:
    volIntegrate(cz_solid_23) of U = (-1.1335e-09 -8.54667e-09 -1.7773e-09)

surfaceFieldValue massFlowAtFilter_23 write:
    sum(fz_solid_23) of phi = -2.02872e-05

volFieldValue volFieldValue_24 write:
    volIntegrate(cz_solid_24) of U = (-1.69796e-09 -8.47437e-09 -1.18461e-09)

surfaceFieldValue massFlowAtFilter_24 write:
    sum(fz_solid_24) of phi = -2.8765e-05

volFieldValue volFieldValue_25 write:
    volIntegrate(cz_solid_25) of U = (-2.18525e-09 -8.34521e-09 -5.25225e-10)

surfaceFieldValue massFlowAtFilter_25 write:
    sum(fz_solid_25) of phi = -6.34869e-06

volFieldValue volFieldValue_26 write:
    volIntegrate(cz_solid_26) of U = (-2.59648e-09 -8.24755e-09 2.64147e-10)

surfaceFieldValue massFlowAtFilter_26 write:
    sum(fz_solid_26) of phi = -8.88883e-06

volFieldValue volFieldValue_27 write:
    volIntegrate(cz_solid_27) of U = (-2.79366e-09 -8.60211e-09 1.30516e-09)

surfaceFieldValue massFlowAtFilter_27 write:
    sum(fz_solid_27) of phi = 2.15298e-06

volFieldValue volFieldValue_28 write:
    volIntegrate(cz_solid_28) of U = (-2.66679e-09 -9.11095e-09 2.37844e-09)

surfaceFieldValue massFlowAtFilter_28 write:
    sum(fz_solid_28) of phi = -1.25449e-05

volFieldValue volFieldValue_29 write:
    volIntegrate(cz_solid_29) of U = (-2.07659e-09 -9.65602e-09 3.48328e-09)

surfaceFieldValue massFlowAtFilter_29 write:
    sum(fz_solid_29) of phi = 4.28696e-05

volFieldValue volFieldValue_30 write:
    volIntegrate(cz_solid_30) of U = (-8.92831e-10 -1.05312e-08 4.43298e-09)

surfaceFieldValue massFlowAtFilter_30 write:
    sum(fz_solid_30) of phi = 1.87512e-05

volFieldValue volFieldValue_31 write:
    volIntegrate(cz_solid_31) of U = (4.22171e-10 -1.14494e-08 4.92813e-09)

surfaceFieldValue massFlowAtFilter_31 write:
    sum(fz_solid_31) of phi = -2.62145e-05

volFieldValue volFieldValue_32 write:
    volIntegrate(cz_solid_32) of U = (2.09021e-09 -1.29415e-08 5.03277e-09)

surfaceFieldValue massFlowAtFilter_32 write:
    sum(fz_solid_32) of phi = -4.20674e-05

volFieldValue volFieldValue_33 write:
    volIntegrate(cz_solid_33) of U = (3.71748e-09 -1.39277e-08 4.54211e-09)

surfaceFieldValue massFlowAtFilter_33 write:
    sum(fz_solid_33) of phi = -1.41635e-05

volFieldValue volFieldValue_34 write:
    volIntegrate(cz_solid_34) of U = (5.15944e-09 -1.49607e-08 3.62932e-09)

surfaceFieldValue massFlowAtFilter_34 write:
    sum(fz_solid_34) of phi = -5.67469e-05

volFieldValue volFieldValue_35 write:
    volIntegrate(cz_solid_35) of U = (6.12386e-09 -1.55516e-08 2.1515e-09)

surfaceFieldValue massFlowAtFilter_35 write:
    sum(fz_solid_35) of phi = 1.36607e-05

volFieldValue volFieldValue_36 write:
    volIntegrate(cz_solid_36) of U = (6.20309e-09 -1.49919e-08 4.25782e-10)

surfaceFieldValue massFlowAtFilter_36 write:
    sum(fz_solid_36) of phi = -2.32003e-05

volFieldValue volFieldValue_37 write:
    volIntegrate(cz_solid_37) of U = (5.51587e-09 -1.3506e-08 -1.24579e-09)

surfaceFieldValue massFlowAtFilter_37 write:
    sum(fz_solid_37) of phi = 6.28659e-05

volFieldValue volFieldValue_38 write:
    volIntegrate(cz_solid_38) of U = (4.38291e-09 -1.22825e-08 -2.39157e-09)

surfaceFieldValue massFlowAtFilter_38 write:
    sum(fz_solid_38) of phi = 4.88428e-05

volFieldValue volFieldValue_39 write:
    volIntegrate(cz_solid_39) of U = (2.89658e-09 -1.11732e-08 -3.05658e-09)

surfaceFieldValue massFlowAtFilter_39 write:
    sum(fz_solid_39) of phi = 2.33036e-05

volFieldValue volFieldValue_40 write:
    volIntegrate(cz_solid_40) of U = (8.49316e-10 -8.6307e-09 -1.26206e-09)

surfaceFieldValue massFlowAtFilter_40 write:
    sum(fz_solid_40) of phi = 1.88991e-05

volFieldValue volFieldValue_41 write:
    volIntegrate(cz_solid_41) of U = (2.88958e-10 -7.89444e-09 -1.1689e-09)

surfaceFieldValue massFlowAtFilter_41 write:
    sum(fz_solid_41) of phi = 3.01673e-05

volFieldValue volFieldValue_42 write:
    volIntegrate(cz_solid_42) of U = (-1.33697e-10 -7.86987e-09 -9.95242e-10)

surfaceFieldValue massFlowAtFilter_42 write:
    sum(fz_solid_42) of phi = 3.29176e-06

volFieldValue volFieldValue_43 write:
    volIntegrate(cz_solid_43) of U = (-4.8904e-10 -7.47933e-09 -7.12612e-10)

surfaceFieldValue massFlowAtFilter_43 write:
    sum(fz_solid_43) of phi = 1.1396e-05

volFieldValue volFieldValue_44 write:
    volIntegrate(cz_solid_44) of U = (-8.03972e-10 -7.38947e-09 -4.20564e-10)

surfaceFieldValue massFlowAtFilter_44 write:
    sum(fz_solid_44) of phi = 2.63012e-06

volFieldValue volFieldValue_45 write:
    volIntegrate(cz_solid_45) of U = (-1.10341e-09 -7.19575e-09 -9.38575e-11)

surfaceFieldValue massFlowAtFilter_45 write:
    sum(fz_solid_45) of phi = 7.83596e-06

volFieldValue volFieldValue_46 write:
    volIntegrate(cz_solid_46) of U = (-1.37232e-09 -7.05103e-09 3.43049e-10)

surfaceFieldValue massFlowAtFilter_46 write:
    sum(fz_solid_46) of phi = 3.10089e-06

volFieldValue volFieldValue_47 write:
    volIntegrate(cz_solid_47) of U = (-1.48927e-09 -7.14059e-09 9.75604e-10)

surfaceFieldValue massFlowAtFilter_47 write:
    sum(fz_solid_47) of phi = 4.37663e-06

volFieldValue volFieldValue_48 write:
    volIntegrate(cz_solid_48) of U = (-1.4004e-09 -7.48442e-09 1.64152e-09)

surfaceFieldValue massFlowAtFilter_48 write:
    sum(fz_solid_48) of phi = -6.6758e-06

volFieldValue volFieldValue_49 write:
    volIntegrate(cz_solid_49) of U = (-9.91071e-10 -7.7894e-09 2.34734e-09)

surfaceFieldValue massFlowAtFilter_49 write:
    sum(fz_solid_49) of phi = 3.49042e-05

volFieldValue volFieldValue_50 write:
    volIntegrate(cz_solid_50) of U = (-1.54554e-10 -8.35334e-09 2.97413e-09)

surfaceFieldValue massFlowAtFilter_50 write:
    sum(fz_solid_50) of phi = 2.63839e-05

volFieldValue volFieldValue_51 write:
    volIntegrate(cz_solid_51) of U = (7.63099e-10 -9.20323e-09 3.28907e-09)

surfaceFieldValue massFlowAtFilter_51 write:
    sum(fz_solid_51) of phi = 1.19046e-05

volFieldValue volFieldValue_52 write:
    volIntegrate(cz_solid_52) of U = (1.95703e-09 -1.06054e-08 3.36554e-09)

surfaceFieldValue massFlowAtFilter_52 write:
    sum(fz_solid_52) of phi = 9.16771e-06

volFieldValue volFieldValue_53 write:
    volIntegrate(cz_solid_53) of U = (3.17534e-09 -1.24303e-08 3.13687e-09)

surfaceFieldValue massFlowAtFilter_53 write:
    sum(fz_solid_53) of phi = 4.64817e-05

volFieldValue volFieldValue_54 write:
    volIntegrate(cz_solid_54) of U = (4.38813e-09 -1.47585e-08 2.75728e-09)

surfaceFieldValue massFlowAtFilter_54 write:
    sum(fz_solid_54) of phi = -1.08674e-05

volFieldValue volFieldValue_55 write:
    volIntegrate(cz_solid_55) of U = (5.23519e-09 -1.71004e-08 2.09442e-09)

surfaceFieldValue massFlowAtFilter_55 write:
    sum(fz_solid_55) of phi = 2.97525e-05

volFieldValue volFieldValue_56 write:
    volIntegrate(cz_solid_56) of U = (4.94703e-09 -1.71767e-08 1.36686e-09)

surfaceFieldValue massFlowAtFilter_56 write:
    sum(fz_solid_56) of phi = 2.99236e-05

volFieldValue volFieldValue_57 write:
    volIntegrate(cz_solid_57) of U = (3.73884e-09 -1.402e-08 4.32432e-10)

surfaceFieldValue massFlowAtFilter_57 write:
    sum(fz_solid_57) of phi = 3.78684e-05

volFieldValue volFieldValue_58 write:
    volIntegrate(cz_solid_58) of U = (2.5411e-09 -1.14365e-08 -6.44239e-10)

surfaceFieldValue massFlowAtFilter_58 write:
    sum(fz_solid_58) of phi = 4.66192e-05

volFieldValue volFieldValue_59 write:
    volIntegrate(cz_solid_59) of U = (1.61048e-09 -9.99995e-09 -1.15524e-09)

surfaceFieldValue massFlowAtFilter_59 write:
    sum(fz_solid_59) of phi = 4.65331e-05

volFieldValue volFieldValue_60 write:
    volIntegrate(cz_solid_60) of U = (-2.99821e-11 -6.39077e-09 3.84766e-10)

surfaceFieldValue massFlowAtFilter_60 write:
    sum(fz_solid_60) of phi = -1.2707e-05

volFieldValue volFieldValue_61 write:
    volIntegrate(cz_solid_61) of U = (4.11711e-11 -5.63435e-09 1.34981e-10)

surfaceFieldValue massFlowAtFilter_61 write:
    sum(fz_solid_61) of phi = -7.12071e-06

volFieldValue volFieldValue_62 write:
    volIntegrate(cz_solid_62) of U = (-7.13098e-12 -5.47223e-09 4.88548e-11)

surfaceFieldValue massFlowAtFilter_62 write:
    sum(fz_solid_62) of phi = -1.13877e-05

volFieldValue volFieldValue_63 write:
    volIntegrate(cz_solid_63) of U = (-1.24768e-10 -5.03993e-09 6.11802e-11)

surfaceFieldValue massFlowAtFilter_63 write:
    sum(fz_solid_63) of phi = -1.17488e-05

volFieldValue volFieldValue_64 write:
    volIntegrate(cz_solid_64) of U = (-2.98473e-10 -4.94296e-09 1.05681e-10)

surfaceFieldValue massFlowAtFilter_64 write:
    sum(fz_solid_64) of phi = -1.1429e-05

volFieldValue volFieldValue_65 write:
    volIntegrate(cz_solid_65) of U = (-5.00808e-10 -4.79173e-09 1.96762e-10)

surfaceFieldValue massFlowAtFilter_65 write:
    sum(fz_solid_65) of phi = -1.59581e-05

volFieldValue volFieldValue_66 write:
    volIntegrate(cz_solid_66) of U = (-7.05551e-10 -4.71138e-09 4.25652e-10)

surfaceFieldValue massFlowAtFilter_66 write:
    sum(fz_solid_66) of phi = -2.46081e-05

volFieldValue volFieldValue_67 write:
    volIntegrate(cz_solid_67) of U = (-7.92586e-10 -4.78903e-09 8.46093e-10)

surfaceFieldValue massFlowAtFilter_67 write:
    sum(fz_solid_67) of phi = -1.95162e-05

volFieldValue volFieldValue_68 write:
    volIntegrate(cz_solid_68) of U = (-7.24892e-10 -5.00222e-09 1.31217e-09)

surfaceFieldValue massFlowAtFilter_68 write:
    sum(fz_solid_68) of phi = -3.31876e-05

volFieldValue volFieldValue_69 write:
    volIntegrate(cz_solid_69) of U = (-3.96499e-10 -5.28611e-09 1.86045e-09)

surfaceFieldValue massFlowAtFilter_69 write:
    sum(fz_solid_69) of phi = -1.83795e-06

volFieldValue volFieldValue_70 write:
    volIntegrate(cz_solid_70) of U = (3.13692e-10 -5.79379e-09 2.39929e-09)

surfaceFieldValue massFlowAtFilter_70 write:
    sum(fz_solid_70) of phi = 4.66388e-06

volFieldValue volFieldValue_71 write:
    volIntegrate(cz_solid_71) of U = (1.149e-09 -6.72517e-09 2.71875e-09)

surfaceFieldValue massFlowAtFilter_71 write:
    sum(fz_solid_71) of phi = -3.28334e-06

volFieldValue volFieldValue_72 write:
    volIntegrate(cz_solid_72) of U = (2.41419e-09 -8.3573e-09 2.86845e-09)

surfaceFieldValue massFlowAtFilter_72 write:
    sum(fz_solid_72) of phi = -1.99484e-05

volFieldValue volFieldValue_73 write:
    volIntegrate(cz_solid_73) of U = (3.99282e-09 -1.08622e-08 2.82299e-09)

surfaceFieldValue massFlowAtFilter_73 write:
    sum(fz_solid_73) of phi = 2.79505e-06

volFieldValue volFieldValue_74 write:
    volIntegrate(cz_solid_74) of U = (6.19866e-09 -1.50351e-08 2.62316e-09)

surfaceFieldValue massFlowAtFilter_74 write:
    sum(fz_solid_74) of phi = -6.86333e-05

volFieldValue volFieldValue_75 write:
    volIntegrate(cz_solid_75) of U = (8.82916e-09 -2.23915e-08 1.79879e-09)

surfaceFieldValue massFlowAtFilter_75 write:
    sum(fz_solid_75) of phi = -7.0097e-05

volFieldValue volFieldValue_76 write:
    volIntegrate(cz_solid_76) of U = (9.84179e-09 -3.38065e-08 1.32174e-09)

surfaceFieldValue massFlowAtFilter_76 write:
    sum(fz_solid_76) of phi = -0.00010383

volFieldValue volFieldValue_77 write:
    volIntegrate(cz_solid_77) of U = (3.82695e-09 -2.92431e-08 7.72846e-09)

surfaceFieldValue massFlowAtFilter_77 write:
    sum(fz_solid_77) of phi = -4.70398e-05

volFieldValue volFieldValue_78 write:
    volIntegrate(cz_solid_78) of U = (-2.39269e-09 -1.07242e-08 1.44494e-09)

surfaceFieldValue massFlowAtFilter_78 write:
    sum(fz_solid_78) of phi = -4.13983e-05

volFieldValue volFieldValue_79 write:
    volIntegrate(cz_solid_79) of U = (-5.9066e-10 -7.30773e-09 7.24027e-10)

surfaceFieldValue massFlowAtFilter_79 write:
    sum(fz_solid_79) of phi = -1.5635e-05

volFieldValue volFieldValue_80 write:
    volIntegrate(cz_solid_80) of U = (-6.94291e-10 -3.23505e-09 1.3574e-09)

surfaceFieldValue massFlowAtFilter_80 write:
    sum(fz_solid_80) of phi = -6.00007e-06

volFieldValue volFieldValue_81 write:
    volIntegrate(cz_solid_81) of U = (-1.87479e-10 -2.73926e-09 8.76489e-10)

surfaceFieldValue massFlowAtFilter_81 write:
    sum(fz_solid_81) of phi = -2.4977e-06

volFieldValue volFieldValue_82 write:
    volIntegrate(cz_solid_82) of U = (-2.23862e-11 -2.47484e-09 5.90642e-10)

surfaceFieldValue massFlowAtFilter_82 write:
    sum(fz_solid_82) of phi = 3.07354e-06

volFieldValue volFieldValue_83 write:
    volIntegrate(cz_solid_83) of U = (-1.55104e-11 -2.17819e-09 4.4128e-10)

surfaceFieldValue massFlowAtFilter_83 write:
    sum(fz_solid_83) of phi = -8.65833e-06

volFieldValue volFieldValue_84 write:
    volIntegrate(cz_solid_84) of U = (-1.26287e-10 -2.0498e-09 3.60188e-10)

surfaceFieldValue massFlowAtFilter_84 write:
    sum(fz_solid_84) of phi = 1.44199e-05

volFieldValue volFieldValue_85 write:
    volIntegrate(cz_solid_85) of U = (-2.69833e-10 -1.9121e-09 3.61704e-10)

surfaceFieldValue massFlowAtFilter_85 write:
    sum(fz_solid_85) of phi = -1.58892e-05

volFieldValue volFieldValue_86 write:
    volIntegrate(cz_solid_86) of U = (-4.25685e-10 -1.80605e-09 5.18866e-10)

surfaceFieldValue massFlowAtFilter_86 write:
    sum(fz_solid_86) of phi = -6.44524e-06

volFieldValue volFieldValue_87 write:
    volIntegrate(cz_solid_87) of U = (-4.7143e-10 -1.85458e-09 8.44598e-10)

surfaceFieldValue massFlowAtFilter_87 write:
    sum(fz_solid_87) of phi = -7.72266e-06

volFieldValue volFieldValue_88 write:
    volIntegrate(cz_solid_88) of U = (-3.87052e-10 -2.0202e-09 1.20946e-09)

surfaceFieldValue massFlowAtFilter_88 write:
    sum(fz_solid_88) of phi = -1.81144e-05

volFieldValue volFieldValue_89 write:
    volIntegrate(cz_solid_89) of U = (-6.9561e-11 -2.12962e-09 1.68611e-09)

surfaceFieldValue massFlowAtFilter_89 write:
    sum(fz_solid_89) of phi = -2.14562e-05

volFieldValue volFieldValue_90 write:
    volIntegrate(cz_solid_90) of U = (6.12344e-10 -2.39721e-09 2.20361e-09)

surfaceFieldValue massFlowAtFilter_90 write:
    sum(fz_solid_90) of phi = 1.72813e-05

volFieldValue volFieldValue_91 write:
    volIntegrate(cz_solid_91) of U = (1.49585e-09 -2.82165e-09 2.51537e-09)

surfaceFieldValue massFlowAtFilter_91 write:
    sum(fz_solid_91) of phi = 7.76306e-06

volFieldValue volFieldValue_92 write:
    volIntegrate(cz_solid_92) of U = (2.96641e-09 -3.53179e-09 2.59643e-09)

surfaceFieldValue massFlowAtFilter_92 write:
    sum(fz_solid_92) of phi = 4.96686e-05

volFieldValue volFieldValue_93 write:
    volIntegrate(cz_solid_93) of U = (4.99764e-09 -5.01177e-09 2.42096e-09)

surfaceFieldValue massFlowAtFilter_93 write:
    sum(fz_solid_93) of phi = 6.83011e-05

volFieldValue volFieldValue_94 write:
    volIntegrate(cz_solid_94) of U = (8.28314e-09 -7.21421e-09 2.00817e-09)

surfaceFieldValue massFlowAtFilter_94 write:
    sum(fz_solid_94) of phi = 0.000118519

volFieldValue volFieldValue_95 write:
[...]
    sum(fz_solid_47) of phi = 0.000694882

volFieldValue volFieldValue_48 write:
    volIntegrate(cz_solid_48) of U = (1.7016e-09 -3.96686e-07 2.57949e-09)

surfaceFieldValue massFlowAtFilter_48 write:
    sum(fz_solid_48) of phi = -5.94455e-06

volFieldValue volFieldValue_49 write:
    volIntegrate(cz_solid_49) of U = (8.0915e-10 -3.55834e-07 9.66891e-10)

surfaceFieldValue massFlowAtFilter_49 write:
    sum(fz_solid_49) of phi = -0.000142791

volFieldValue volFieldValue_50 write:
    volIntegrate(cz_solid_50) of U = (4.10374e-10 -2.34192e-07 -7.08143e-12)

surfaceFieldValue massFlowAtFilter_50 write:
    sum(fz_solid_50) of phi = -9.42294e-05

volFieldValue volFieldValue_51 write:
    volIntegrate(cz_solid_51) of U = (4.20816e-10 -1.23e-07 5.77983e-11)

surfaceFieldValue massFlowAtFilter_51 write:
    sum(fz_solid_51) of phi = -1.4259e-05

volFieldValue volFieldValue_52 write:
    volIntegrate(cz_solid_52) of U = (3.63157e-10 -6.7625e-08 3.71554e-10)

surfaceFieldValue massFlowAtFilter_52 write:
    sum(fz_solid_52) of phi = -6.06016e-05

volFieldValue volFieldValue_53 write:
    volIntegrate(cz_solid_53) of U = (3.81517e-10 -1.7928e-08 3.82973e-10)

surfaceFieldValue massFlowAtFilter_53 write:
    sum(fz_solid_53) of phi = -6.23607e-05

volFieldValue volFieldValue_54 write:
    volIntegrate(cz_solid_54) of U = (2.99719e-10 3.5848e-08 1.89232e-10)

surfaceFieldValue massFlowAtFilter_54 write:
    sum(fz_solid_54) of phi = -4.38465e-05

volFieldValue volFieldValue_55 write:
    volIntegrate(cz_solid_55) of U = (7.52328e-11 8.00777e-08 -3.88002e-11)

surfaceFieldValue massFlowAtFilter_55 write:
    sum(fz_solid_55) of phi = -2.88546e-05

volFieldValue volFieldValue_56 write:
    volIntegrate(cz_solid_56) of U = (-1.5858e-10 9.16395e-08 -1.91263e-10)

surfaceFieldValue massFlowAtFilter_56 write:
    sum(fz_solid_56) of phi = -3.55865e-05

volFieldValue volFieldValue_57 write:
    volIntegrate(cz_solid_57) of U = (-4.10455e-10 6.36343e-08 -7.33123e-11)

surfaceFieldValue massFlowAtFilter_57 write:
    sum(fz_solid_57) of phi = -1.77744e-05

volFieldValue volFieldValue_58 write:
    volIntegrate(cz_solid_58) of U = (-4.97058e-10 2.63761e-08 2.85704e-10)

surfaceFieldValue massFlowAtFilter_58 write:
    sum(fz_solid_58) of phi = -0.000148532

volFieldValue volFieldValue_59 write:
    volIntegrate(cz_solid_59) of U = (-3.5449e-10 -1.15843e-09 5.19357e-10)

surfaceFieldValue massFlowAtFilter_59 write:
    sum(fz_solid_59) of phi = 4.27731e-05

volFieldValue volFieldValue_60 write:
    volIntegrate(cz_solid_60) of U = (-5.13108e-10 1.82421e-08 8.93345e-10)

surfaceFieldValue massFlowAtFilter_60 write:
    sum(fz_solid_60) of phi = -0.000212078

volFieldValue volFieldValue_61 write:
    volIntegrate(cz_solid_61) of U = (-7.24523e-10 -6.19401e-09 7.5035e-10)

surfaceFieldValue massFlowAtFilter_61 write:
    sum(fz_solid_61) of phi = -1.36545e-05

volFieldValue volFieldValue_62 write:
    volIntegrate(cz_solid_62) of U = (-8.59621e-10 -2.89328e-08 2.06691e-09)

surfaceFieldValue massFlowAtFilter_62 write:
    sum(fz_solid_62) of phi = 4.58803e-05

volFieldValue volFieldValue_63 write:
    volIntegrate(cz_solid_63) of U = (-1.34806e-09 -7.34185e-08 3.69429e-09)

surfaceFieldValue massFlowAtFilter_63 write:
    sum(fz_solid_63) of phi = 0.000228329

volFieldValue volFieldValue_64 write:
    volIntegrate(cz_solid_64) of U = (-2.46992e-10 -1.20455e-07 7.09319e-09)

surfaceFieldValue massFlowAtFilter_64 write:
    sum(fz_solid_64) of phi = -0.000194588

volFieldValue volFieldValue_65 write:
    volIntegrate(cz_solid_65) of U = (2.66368e-09 -1.63825e-07 7.80549e-09)

surfaceFieldValue massFlowAtFilter_65 write:
    sum(fz_solid_65) of phi = -0.0007531

volFieldValue volFieldValue_66 write:
    volIntegrate(cz_solid_66) of U = (4.77025e-09 -1.94817e-07 6.2704e-09)

surfaceFieldValue massFlowAtFilter_66 write:
    sum(fz_solid_66) of phi = 0.000382974

volFieldValue volFieldValue_67 write:
    volIntegrate(cz_solid_67) of U = (2.82808e-09 -2.35885e-07 4.90492e-09)

surfaceFieldValue massFlowAtFilter_67 write:
    sum(fz_solid_67) of phi = 0.000390418

volFieldValue volFieldValue_68 write:
    volIntegrate(cz_solid_68) of U = (4.52901e-09 -2.56406e-07 3.52087e-09)

surfaceFieldValue massFlowAtFilter_68 write:
    sum(fz_solid_68) of phi = -0.000533663

volFieldValue volFieldValue_69 write:
    volIntegrate(cz_solid_69) of U = (2.80243e-09 -2.29613e-07 5.21509e-10)

surfaceFieldValue massFlowAtFilter_69 write:
    sum(fz_solid_69) of phi = -0.000494589

volFieldValue volFieldValue_70 write:
    volIntegrate(cz_solid_70) of U = (1.54861e-09 -1.77833e-07 -9.06464e-10)

surfaceFieldValue massFlowAtFilter_70 write:
    sum(fz_solid_70) of phi = -0.000273031

volFieldValue volFieldValue_71 write:
    volIntegrate(cz_solid_71) of U = (8.42709e-10 -1.36704e-07 -9.22241e-10)

surfaceFieldValue massFlowAtFilter_71 write:
    sum(fz_solid_71) of phi = -8.75959e-06

volFieldValue volFieldValue_72 write:
    volIntegrate(cz_solid_72) of U = (-7.7976e-12 -7.87609e-08 -6.7921e-10)

surfaceFieldValue massFlowAtFilter_72 write:
    sum(fz_solid_72) of phi = 6.28484e-05

volFieldValue volFieldValue_73 write:
    volIntegrate(cz_solid_73) of U = (-6.65189e-10 2.72246e-08 -6.79786e-10)

surfaceFieldValue massFlowAtFilter_73 write:
    sum(fz_solid_73) of phi = -5.43064e-05

volFieldValue volFieldValue_74 write:
    volIntegrate(cz_solid_74) of U = (-1.10944e-09 1.22938e-07 -6.12905e-10)

surfaceFieldValue massFlowAtFilter_74 write:
    sum(fz_solid_74) of phi = 0.000224366

volFieldValue volFieldValue_75 write:
    volIntegrate(cz_solid_75) of U = (-1.18388e-09 1.67549e-07 -7.33918e-10)

surfaceFieldValue massFlowAtFilter_75 write:
    sum(fz_solid_75) of phi = 5.90215e-05

volFieldValue volFieldValue_76 write:
    volIntegrate(cz_solid_76) of U = (-9.49036e-10 1.01247e-07 -5.8824e-10)

surfaceFieldValue massFlowAtFilter_76 write:
    sum(fz_solid_76) of phi = -3.76288e-05

volFieldValue volFieldValue_77 write:
    volIntegrate(cz_solid_77) of U = (-7.47677e-10 6.78265e-08 -1.36541e-10)

surfaceFieldValue massFlowAtFilter_77 write:
    sum(fz_solid_77) of phi = -5.45065e-06

volFieldValue volFieldValue_78 write:
    volIntegrate(cz_solid_78) of U = (-6.81321e-10 7.18061e-08 1.36875e-10)

surfaceFieldValue massFlowAtFilter_78 write:
    sum(fz_solid_78) of phi = -0.000195842

volFieldValue volFieldValue_79 write:
    volIntegrate(cz_solid_79) of U = (-7.06435e-10 3.98831e-08 6.00621e-10)

surfaceFieldValue massFlowAtFilter_79 write:
    sum(fz_solid_79) of phi = -2.84632e-05

volFieldValue volFieldValue_80 write:
    volIntegrate(cz_solid_80) of U = (-6.19142e-10 -1.21355e-08 5.57622e-10)

surfaceFieldValue massFlowAtFilter_80 write:
    sum(fz_solid_80) of phi = -8.20689e-05

volFieldValue volFieldValue_81 write:
    volIntegrate(cz_solid_81) of U = (-9.8958e-10 -3.4847e-08 5.80462e-10)

surfaceFieldValue massFlowAtFilter_81 write:
    sum(fz_solid_81) of phi = -0.000100454

volFieldValue volFieldValue_82 write:
    volIntegrate(cz_solid_82) of U = (-1.4578e-09 -4.63542e-08 2.17008e-09)

surfaceFieldValue massFlowAtFilter_82 write:
    sum(fz_solid_82) of phi = 9.55217e-05

volFieldValue volFieldValue_83 write:
    volIntegrate(cz_solid_83) of U = (-2.10554e-09 -5.27791e-08 4.22676e-09)

surfaceFieldValue massFlowAtFilter_83 write:
    sum(fz_solid_83) of phi = -4.57833e-05

volFieldValue volFieldValue_84 write:
    volIntegrate(cz_solid_84) of U = (-9.17967e-10 -5.65096e-08 8.64532e-09)

surfaceFieldValue massFlowAtFilter_84 write:
    sum(fz_solid_84) of phi = 0.000401101

volFieldValue volFieldValue_85 write:
    volIntegrate(cz_solid_85) of U = (3.06836e-09 -5.06808e-08 9.75761e-09)

surfaceFieldValue massFlowAtFilter_85 write:
    sum(fz_solid_85) of phi = -0.000978164

volFieldValue volFieldValue_86 write:
    volIntegrate(cz_solid_86) of U = (6.01896e-09 -5.02702e-08 7.85867e-09)

surfaceFieldValue massFlowAtFilter_86 write:
    sum(fz_solid_86) of phi = -0.000205085

volFieldValue volFieldValue_87 write:
    volIntegrate(cz_solid_87) of U = (4.82854e-09 4.22205e-09 6.06322e-09)

surfaceFieldValue massFlowAtFilter_87 write:
    sum(fz_solid_87) of phi = 0.000763507

volFieldValue volFieldValue_88 write:
    volIntegrate(cz_solid_88) of U = (8.05056e-09 7.30984e-09 4.75582e-09)

surfaceFieldValue massFlowAtFilter_88 write:
    sum(fz_solid_88) of phi = -0.00135183

volFieldValue volFieldValue_89 write:
    volIntegrate(cz_solid_89) of U = (6.1699e-09 4.2361e-09 -2.93555e-10)

surfaceFieldValue massFlowAtFilter_89 write:
    sum(fz_solid_89) of phi = -0.000850972

volFieldValue volFieldValue_90 write:
    volIntegrate(cz_solid_90) of U = (2.90306e-09 -2.3082e-08 -2.21456e-09)

surfaceFieldValue massFlowAtFilter_90 write:
    sum(fz_solid_90) of phi = -0.000461485

volFieldValue volFieldValue_91 write:
    volIntegrate(cz_solid_91) of U = (1.47616e-09 -7.41552e-08 -1.22226e-09)

surfaceFieldValue massFlowAtFilter_91 write:
    sum(fz_solid_91) of phi = 0.000165253

volFieldValue volFieldValue_92 write:
    volIntegrate(cz_solid_92) of U = (7.71146e-10 -8.47559e-08 -1.38563e-09)

surfaceFieldValue massFlowAtFilter_92 write:
    sum(fz_solid_92) of phi = 0.00014162

volFieldValue volFieldValue_93 write:
    volIntegrate(cz_solid_93) of U = (-7.83883e-10 -6.55011e-08 -2.2588e-09)

surfaceFieldValue massFlowAtFilter_93 write:
    sum(fz_solid_93) of phi = 4.86863e-05

volFieldValue volFieldValue_94 write:
    volIntegrate(cz_solid_94) of U = (-2.85345e-09 -8.59656e-09 -1.31602e-09)

surfaceFieldValue massFlowAtFilter_94 write:
    sum(fz_solid_94) of phi = 0.000682864

volFieldValue volFieldValue_95 write:
    volIntegrate(cz_solid_95) of U = (-1.88241e-09 4.14169e-08 -1.0999e-09)

surfaceFieldValue massFlowAtFilter_95 write:
    sum(fz_solid_95) of phi = -0.000136387

volFieldValue volFieldValue_96 write:
    volIntegrate(cz_solid_96) of U = (-1.07508e-09 6.03573e-08 -8.42562e-10)

surfaceFieldValue massFlowAtFilter_96 write:
    sum(fz_solid_96) of phi = -5.03598e-06

volFieldValue volFieldValue_97 write:
    volIntegrate(cz_solid_97) of U = (-6.18049e-10 6.58746e-08 -1.03444e-10)

surfaceFieldValue massFlowAtFilter_97 write:
    sum(fz_solid_97) of phi = 0.000256175

volFieldValue volFieldValue_98 write:
    volIntegrate(cz_solid_98) of U = (-5.80258e-10 4.55267e-08 1.56816e-10)

surfaceFieldValue massFlowAtFilter_98 write:
    sum(fz_solid_98) of phi = -0.000215371

volFieldValue volFieldValue_99 write:
    volIntegrate(cz_solid_99) of U = (-6.10818e-10 2.27062e-08 3.85364e-10)

surfaceFieldValue massFlowAtFilter_99 write:
    sum(fz_solid_99) of phi = 0.0002552

Time = 1021

DILUPBiCG:  Solving for Ux, Initial residual = 1.63699e-07, Final residual = 1.63699e-07, No Iterations 0
DILUPBiCG:  Solving for Uy, Initial residual = 1.23111e-07, Final residual = 1.23111e-07, No Iterations 0
DILUPBiCG:  Solving for Uz, Initial residual = 4.5085e-07, Final residual = 4.5085e-07, No Iterations 0
DICPCG:  Solving for p, Initial residual = 0.00100493, Final residual = 9.40267e-05, No Iterations 16
DICPCG:  Solving for p, Initial residual = 0.000229822, Final residual = 2.05855e-05, No Iterations 21
DICPCG:  Solving for p, Initial residual = 5.12796e-05, Final residual = 9.72332e-06, No Iterations 25
time step continuity errors : sum local = 8.62515e-05, global = 2.15919e-06, cumulative = -0.00500521
DILUPBiCG:  Solving for epsilon, Initial residual = 0.000747818, Final residual = 4.32002e-07, No Iterations 3
bounding epsilon, min: -0.0012918 max: 11629.9 average: 39.855
DILUPBiCG:  Solving for k, Initial residual = 0.000852707, Final residual = 5.32322e-07, No Iterations 3
ExecutionTime = 2478.12 s  ClockTime = 2557 s

Time = 1022

DILUPBiCG:  Solving for Ux, Initial residual = 1.63497e-07, Final residual = 1.63497e-07, No Iterations 0
DILUPBiCG:  Solving for Uy, Initial residual = 1.23133e-07, Final residual = 1.23133e-07, No Iterations 0
DILUPBiCG:  Solving for Uz, Initial residual = 4.49049e-07, Final residual = 4.49049e-07, No Iterations 0
DICPCG:  Solving for p, Initial residual = 0.0010042, Final residual = 9.43419e-05, No Iterations 16
DICPCG:  Solving for p, Initial residual = 0.000229736, Final residual = 2.10142e-05, No Iterations 21
DICPCG:  Solving for p, Initial residual = 5.16876e-05, Final residual = 9.96103e-06, No Iterations 55
time step continuity errors : sum local = 8.83516e-05, global = 9.7647e-07, cumulative = -0.00500423
DILUPBiCG:  Solving for epsilon, Initial residual = 0.000747035, Final residual = 4.3154e-07, No Iterations 3
DILUPBiCG:  Solving for k, Initial residual = 0.000851202, Final residual = 5.31553e-07, No Iterations 3
ExecutionTime = 2479.95 s  ClockTime = 2559 s

Time = 1023

DILUPBiCG:  Solving for Ux, Initial residual = 1.63318e-07, Final residual = 1.63318e-07, No Iterations 0
DILUPBiCG:  Solving for Uy, Initial residual = 1.23153e-07, Final residual = 1.23153e-07, No Iterations 0
DILUPBiCG:  Solving for Uz, Initial residual = 4.47258e-07, Final residual = 4.47258e-07, No Iterations 0
DICPCG:  Solving for p, Initial residual = 0.00100309, Final residual = 9.51121e-05, No Iterations 16
DICPCG:  Solving for p, Initial residual = 0.000230664, Final residual = 2.09701e-05, No Iterations 21
DICPCG:  Solving for p, Initial residual = 5.17285e-05, Final residual = 9.98867e-06, No Iterations 18
time step continuity errors : sum local = 8.85894e-05, global = -9.46703e-07, cumulative = -0.00500518
DILUPBiCG:  Solving for epsilon, Initial residual = 0.000746338, Final residual = 4.31431e-07, No Iterations 3
bounding epsilon, min: -0.00105023 max: 11629.9 average: 39.8591
DILUPBiCG:  Solving for k, Initial residual = 0.000849716, Final residual = 5.30888e-07, No Iterations 3
ExecutionTime = 2481.49 s  ClockTime = 2561 s

Time = 1024

DILUPBiCG:  Solving for Ux, Initial residual = 1.6313e-07, Final residual = 1.6313e-07, No Iterations 0
DILUPBiCG:  Solving for Uy, Initial residual = 1.23175e-07, Final residual = 1.23175e-07, No Iterations 0
DILUPBiCG:  Solving for Uz, Initial residual = 4.45467e-07, Final residual = 4.45467e-07, No Iterations 0
DICPCG:  Solving for p, Initial residual = 0.00100489, Final residual = 9.56222e-05, No Iterations 16
DICPCG:  Solving for p, Initial residual = 0.000231215, Final residual = 2.14951e-05, No Iterations 21
DICPCG:  Solving for p, Initial residual = 5.23971e-05, Final residual = 9.83982e-06, No Iterations 24
time step continuity errors : sum local = 8.7264e-05, global = -1.91445e-06, cumulative = -0.00500709
DILUPBiCG:  Solving for epsilon, Initial residual = 0.000745624, Final residual = 4.32099e-07, No Iterations 3
DILUPBiCG:  Solving for k, Initial residual = 0.00084825, Final residual = 5.30271e-07, No Iterations 3
ExecutionTime = 2483.07 s  ClockTime = 2562 s

Time = 1025

DILUPBiCG:  Solving for Ux, Initial residual = 1.62954e-07, Final residual = 1.62954e-07, No Iterations 0
DILUPBiCG:  Solving for Uy, Initial residual = 1.23195e-07, Final residual = 1.23195e-07, No Iterations 0
DILUPBiCG:  Solving for Uz, Initial residual = 4.43705e-07, Final residual = 4.43705e-07, No Iterations 0
DICPCG:  Solving for p, Initial residual = 0.00100043, Final residual = 9.64756e-05, No Iterations 16
DICPCG:  Solving for p, Initial residual = 0.000231415, Final residual = 2.18457e-05, No Iterations 21
DICPCG:  Solving for p, Initial residual = 5.26856e-05, Final residual = 9.90528e-06, No Iterations 39
time step continuity errors : sum local = 8.78409e-05, global = -1.64063e-06, cumulative = -0.00500873
DILUPBiCG:  Solving for epsilon, Initial residual = 0.000744858, Final residual = 4.32542e-07, No Iterations 3
DILUPBiCG:  Solving for k, Initial residual = 0.000846788, Final residual = 5.29795e-07, No Iterations 3
ExecutionTime = 2484.77 s  ClockTime = 2564 s

Time = 1026

DILUPBiCG:  Solving for Ux, Initial residual = 1.62804e-07, Final residual = 1.62804e-07, No Iterations 0
DILUPBiCG:  Solving for Uy, Initial residual = 1.23215e-07, Final residual = 1.23215e-07, No Iterations 0
DILUPBiCG:  Solving for Uz, Initial residual = 4.41953e-07, Final residual = 4.41953e-07, No Iterations 0
DICPCG:  Solving for p, Initial residual = 0.00100451, Final residual = 9.54467e-05, No Iterations 16
DICPCG:  Solving for p, Initial residual = 0.000231353, Final residual = 2.10572e-05, No Iterations 21
DICPCG:  Solving for p, Initial residual = 5.20521e-05, Final residual = 9.91774e-06, No Iterations 55
time step continuity errors : sum local = 8.79491e-05, global = -4.25983e-06, cumulative = -0.00501299
DILUPBiCG:  Solving for epsilon, Initial residual = 0.000744164, Final residual = 4.32575e-07, No Iterations 3
DILUPBiCG:  Solving for k, Initial residual = 0.000845344, Final residual = 5.29271e-07, No Iterations 3
ExecutionTime = 2486.6 s  ClockTime = 2566 s

Time = 1027

DILUPBiCG:  Solving for Ux, Initial residual = 1.62655e-07, Final residual = 1.62655e-07, No Iterations 0
DILUPBiCG:  Solving for Uy, Initial residual = 1.23235e-07, Final residual = 1.23235e-07, No Iterations 0
DILUPBiCG:  Solving for Uz, Initial residual = 4.402e-07, Final residual = 4.402e-07, No Iterations 0
DICPCG:  Solving for p, Initial residual = 0.00100336, Final residual = 9.44346e-05, No Iterations 16
DICPCG:  Solving for p, Initial residual = 0.000230503, Final residual = 2.05143e-05, No Iterations 21
DICPCG:  Solving for p, Initial residual = 5.13743e-05, Final residual = 9.97767e-06, No Iterations 20
time step continuity errors : sum local = 8.84807e-05, global = -5.84091e-06, cumulative = -0.00501884
DILUPBiCG:  Solving for epsilon, Initial residual = 0.000743463, Final residual = 4.33575e-07, No Iterations 3
bounding epsilon, min: -0.00545787 max: 11629.9 average: 39.8683
DILUPBiCG:  Solving for k, Initial residual = 0.000843905, Final residual = 5.28723e-07, No Iterations 3
ExecutionTime = 2488.16 s  ClockTime = 2567 s

Time = 1028

DILUPBiCG:  Solving for Ux, Initial residual = 1.62486e-07, Final residual = 1.62486e-07, No Iterations 0
DILUPBiCG:  Solving for Uy, Initial residual = 1.23257e-07, Final residual = 1.23257e-07, No Iterations 0
DILUPBiCG:  Solving for Uz, Initial residual = 4.38433e-07, Final residual = 4.38433e-07, No Iterations 0
DICPCG:  Solving for p, Initial residual = 0.00100168, Final residual = 9.44332e-05, No Iterations 16
DICPCG:  Solving for p, Initial residual = 0.000230467, Final residual = 2.05064e-05, No Iterations 21
DICPCG:  Solving for p, Initial residual = 5.13143e-05, Final residual = 9.95751e-06, No Iterations 55
time step continuity errors : sum local = 8.83054e-05, global = -7.04807e-06, cumulative = -0.00502588
DILUPBiCG:  Solving for epsilon, Initial residual = 0.000742752, Final residual = 4.34735e-07, No Iterations 3
bounding epsilon, min: -0.000464908 max: 11629.9 average: 39.8705
DILUPBiCG:  Solving for k, Initial residual = 0.000842489, Final residual = 5.28216e-07, No Iterations 3
ExecutionTime = 2489.99 s  ClockTime = 2569 s

Time = 1029

DILUPBiCG:  Solving for Ux, Initial residual = 1.62339e-07, Final residual = 1.62339e-07, No Iterations 0
DILUPBiCG:  Solving for Uy, Initial residual = 1.23275e-07, Final residual = 1.23275e-07, No Iterations 0
DILUPBiCG:  Solving for Uz, Initial residual = 4.36684e-07, Final residual = 4.36684e-07, No Iterations 0
DICPCG:  Solving for p, Initial residual = 0.000997375, Final residual = 9.39079e-05, No Iterations 16
DICPCG:  Solving for p, Initial residual = 0.00022986, Final residual = 2.01909e-05, No Iterations 21
DICPCG:  Solving for p, Initial residual = 5.09431e-05, Final residual = 9.63511e-06, No Iterations 18
time step continuity errors : sum local = 8.54533e-05, global = -8.20251e-06, cumulative = -0.00503409
DILUPBiCG:  Solving for epsilon, Initial residual = 0.000742108, Final residual = 4.35626e-07, No Iterations 3
DILUPBiCG:  Solving for k, Initial residual = 0.000841096, Final residual = 5.2769e-07, No Iterations 3
ExecutionTime = 2491.51 s  ClockTime = 2571 s


SIMPLE solution converged in 1029 iterations

End

Finalising parallel run
