/*---------------------------------------------------------------------------*\
  =========                 |
  \\      /  F ield         | OpenFOAM: The Open Source CFD Toolbox
   \\    /   O peration     | Website:  https://openfoam.org
    \\  /    A nd           | Version:  6
     \\/     M anipulation  |
\*---------------------------------------------------------------------------*/
Build  : 6
Exec   : bouSimpleFoam -parallel
Date   : Aug 09 2020
Time   : 00:43:46
Host   : "emps-ugcs1"
PID    : 6076
I/O    : uncollated
Case   : /home/links/jjw230/Second_Extra/Case18
nProcs : 4
Slaves : 
3
(
"emps-ugcs1.6078"
"emps-ugcs1.6079"
"emps-ugcs1.6080"
)

Pstream initialized with:
    floatTransfer      : 0
    nProcsSimpleSum    : 0
    commsType          : nonBlocking
    polling iterations : 0
sigFpe : Enabling floating point exception trapping (FOAM_SIGFPE).
fileModificationChecking : Monitoring run-time modified files using timeStampMaster (fileModificationSkew 10)
allowSystemOperations : Allowing user-supplied system call operations

// * * * * * * * * * * * * * * * * * * * * * * * * * * * * * * * * * * * * * //
Create time

Create mesh for time = 0


SIMPLE: Convergence criteria found
        p: tolerance 0.001
        U: tolerance 0.001
        "(k|epsilon)": tolerance 0.001
        theta: tolerance 0.001

Reading field p

Reading field U

Reading field theta

Reading/calculating face flux field phi

Selecting incompressible transport model Newtonian
Selecting turbulence model type RAS
Selecting RAS turbulence model RNGkEpsilon
RAS
{
    RASModel        RNGkEpsilon;
    turbulence      on;
    printCoeffs     on;
    Cmu             0.0845;
    C1              1.42;
    C2              1.68;
    C3              0;
    sigmak          0.71942;
    sigmaEps        0.71942;
    eta0            4.38;
    beta            0.012;
}

No MRF models present

Creating finite volume options from "system/fvOptions"

Selecting finite volume options model type explicitPorositySource
    Source: source0
    - selecting cells using cellZone cz_solid_0
    - selected 2209 cell(s) with volume 0.0021428
Porosity region source0:
    selecting model: DarcyForchheimer
    creating porous zone: cz_solid_0
Selecting finite volume options model type explicitPorositySource
    Source: source1
    - selecting cells using cellZone cz_solid_1
    - selected 2393 cell(s) with volume 0.00214318
Porosity region source1:
    selecting model: DarcyForchheimer
    creating porous zone: cz_solid_1
Selecting finite volume options model type explicitPorositySource
    Source: source2
    - selecting cells using cellZone cz_solid_2
    - selected 2139 cell(s) with volume 0.00214169
Porosity region source2:
    selecting model: DarcyForchheimer
    creating porous zone: cz_solid_2
Selecting finite volume options model type explicitPorositySource
    Source: source3
    - selecting cells using cellZone cz_solid_3
    - selected 2047 cell(s) with volume 0.00214284
Porosity region source3:
    selecting model: DarcyForchheimer
    creating porous zone: cz_solid_3
Selecting finite volume options model type explicitPorositySource
    Source: source4
    - selecting cells using cellZone cz_solid_4
    - selected 1813 cell(s) with volume 0.00214331
Porosity region source4:
    selecting model: DarcyForchheimer
    creating porous zone: cz_solid_4
Selecting finite volume options model type explicitPorositySource
    Source: source5
    - selecting cells using cellZone cz_solid_5
    - selected 1785 cell(s) with volume 0.00213915
Porosity region source5:
    selecting model: DarcyForchheimer
    creating porous zone: cz_solid_5
Selecting finite volume options model type explicitPorositySource
    Source: source6
    - selecting cells using cellZone cz_solid_6
    - selected 2225 cell(s) with volume 0.00214174
Porosity region source6:
    selecting model: DarcyForchheimer
    creating porous zone: cz_solid_6
Selecting finite volume options model type explicitPorositySource
    Source: source7
    - selecting cells using cellZone cz_solid_7
    - selected 2004 cell(s) with volume 0.00214275
Porosity region source7:
    selecting model: DarcyForchheimer
    creating porous zone: cz_solid_7
Selecting finite volume options model type explicitPorositySource
    Source: source8
    - selecting cells using cellZone cz_solid_8
    - selected 2356 cell(s) with volume 0.00214285
Porosity region source8:
    selecting model: DarcyForchheimer
    creating porous zone: cz_solid_8
Selecting finite volume options model type explicitPorositySource
    Source: source9
    - selecting cells using cellZone cz_solid_9
    - selected 2217 cell(s) with volume 0.00214594
Porosity region source9:
    selecting model: DarcyForchheimer
    creating porous zone: cz_solid_9
Selecting finite volume options model type explicitPorositySource
    Source: source10
    - selecting cells using cellZone cz_solid_10
    - selected 2113 cell(s) with volume 0.00214217
Porosity region source10:
    selecting model: DarcyForchheimer
    creating porous zone: cz_solid_10
Selecting finite volume options model type explicitPorositySource
    Source: source11
    - selecting cells using cellZone cz_solid_11
    - selected 2377 cell(s) with volume 0.00214222
Porosity region source11:
    selecting model: DarcyForchheimer
    creating porous zone: cz_solid_11
Selecting finite volume options model type explicitPorositySource
    Source: source12
    - selecting cells using cellZone cz_solid_12
    - selected 2288 cell(s) with volume 0.00214309
Porosity region source12:
    selecting model: DarcyForchheimer
    creating porous zone: cz_solid_12
Selecting finite volume options model type explicitPorositySource
    Source: source13
    - selecting cells using cellZone cz_solid_13
    - selected 2011 cell(s) with volume 0.00214091
Porosity region source13:
    selecting model: DarcyForchheimer
    creating porous zone: cz_solid_13
Selecting finite volume options model type explicitPorositySource
    Source: source14
    - selecting cells using cellZone cz_solid_14
    - selected 2431 cell(s) with volume 0.0021446
Porosity region source14:
    selecting model: DarcyForchheimer
    creating porous zone: cz_solid_14
Selecting finite volume options model type explicitPorositySource
    Source: source15
    - selecting cells using cellZone cz_solid_15
    - selected 2083 cell(s) with volume 0.0021428
Porosity region source15:
    selecting model: DarcyForchheimer
    creating porous zone: cz_solid_15
Selecting finite volume options model type explicitPorositySource
    Source: source16
    - selecting cells using cellZone cz_solid_16
    - selected 2183 cell(s) with volume 0.00214198
Porosity region source16:
    selecting model: DarcyForchheimer
    creating porous zone: cz_solid_16
Selecting finite volume options model type explicitPorositySource
    Source: source17
    - selecting cells using cellZone cz_solid_17
    - selected 1995 cell(s) with volume 0.00214006
Porosity region source17:
    selecting model: DarcyForchheimer
    creating porous zone: cz_solid_17
Selecting finite volume options model type explicitPorositySource
    Source: source18
    - selecting cells using cellZone cz_solid_18
    - selected 2076 cell(s) with volume 0.00214316
Porosity region source18:
    selecting model: DarcyForchheimer
    creating porous zone: cz_solid_18
Selecting finite volume options model type explicitPorositySource
    Source: source19
    - selecting cells using cellZone cz_solid_19
    - selected 2065 cell(s) with volume 0.00214299
Porosity region source19:
    selecting model: DarcyForchheimer
    creating porous zone: cz_solid_19
Selecting finite volume options model type explicitPorositySource
    Source: source20
    - selecting cells using cellZone cz_solid_20
    - selected 2214 cell(s) with volume 0.00214295
Porosity region source20:
    selecting model: DarcyForchheimer
    creating porous zone: cz_solid_20
Selecting finite volume options model type explicitPorositySource
    Source: source21
    - selecting cells using cellZone cz_solid_21
    - selected 2404 cell(s) with volume 0.00214329
Porosity region source21:
    selecting model: DarcyForchheimer
    creating porous zone: cz_solid_21
Selecting finite volume options model type explicitPorositySource
    Source: source22
    - selecting cells using cellZone cz_solid_22
    - selected 2144 cell(s) with volume 0.00214157
Porosity region source22:
    selecting model: DarcyForchheimer
    creating porous zone: cz_solid_22
Selecting finite volume options model type explicitPorositySource
    Source: source23
    - selecting cells using cellZone cz_solid_23
    - selected 2042 cell(s) with volume 0.00214284
Porosity region source23:
    selecting model: DarcyForchheimer
    creating porous zone: cz_solid_23
Selecting finite volume options model type explicitPorositySource
    Source: source24
    - selecting cells using cellZone cz_solid_24
    - selected 1812 cell(s) with volume 0.00214335
Porosity region source24:
    selecting model: DarcyForchheimer
    creating porous zone: cz_solid_24
Selecting finite volume options model type explicitPorositySource
    Source: source25
    - selecting cells using cellZone cz_solid_25
    - selected 1784 cell(s) with volume 0.00213908
Porosity region source25:
    selecting model: DarcyForchheimer
    creating porous zone: cz_solid_25
Selecting finite volume options model type explicitPorositySource
    Source: source26
    - selecting cells using cellZone cz_solid_26
    - selected 2222 cell(s) with volume 0.0021419
Porosity region source26:
    selecting model: DarcyForchheimer
    creating porous zone: cz_solid_26
Selecting finite volume options model type explicitPorositySource
    Source: source27
    - selecting cells using cellZone cz_solid_27
    - selected 1996 cell(s) with volume 0.00214266
Porosity region source27:
    selecting model: DarcyForchheimer
    creating porous zone: cz_solid_27
Selecting finite volume options model type explicitPorositySource
    Source: source28
    - selecting cells using cellZone cz_solid_28
    - selected 2368 cell(s) with volume 0.00214254
Porosity region source28:
    selecting model: DarcyForchheimer
    creating porous zone: cz_solid_28
Selecting finite volume options model type explicitPorositySource
    Source: source29
    - selecting cells using cellZone cz_solid_29
    - selected 2204 cell(s) with volume 0.0021458
Porosity region source29:
    selecting model: DarcyForchheimer
    creating porous zone: cz_solid_29
Selecting finite volume options model type explicitPorositySource
    Source: source30
    - selecting cells using cellZone cz_solid_30
    - selected 2110 cell(s) with volume 0.00214234
Porosity region source30:
    selecting model: DarcyForchheimer
    creating porous zone: cz_solid_30
Selecting finite volume options model type explicitPorositySource
    Source: source31
    - selecting cells using cellZone cz_solid_31
    - selected 2368 cell(s) with volume 0.00214253
Porosity region source31:
    selecting model: DarcyForchheimer
    creating porous zone: cz_solid_31
Selecting finite volume options model type explicitPorositySource
    Source: source32
    - selecting cells using cellZone cz_solid_32
    - selected 2292 cell(s) with volume 0.00214331
Porosity region source32:
    selecting model: DarcyForchheimer
    creating porous zone: cz_solid_32
Selecting finite volume options model type explicitPorositySource
    Source: source33
    - selecting cells using cellZone cz_solid_33
    - selected 2010 cell(s) with volume 0.00214049
Porosity region source33:
    selecting model: DarcyForchheimer
    creating porous zone: cz_solid_33
Selecting finite volume options model type explicitPorositySource
    Source: source34
    - selecting cells using cellZone cz_solid_34
    - selected 2444 cell(s) with volume 0.00214458
Porosity region source34:
    selecting model: DarcyForchheimer
    creating porous zone: cz_solid_34
Selecting finite volume options model type explicitPorositySource
    Source: source35
    - selecting cells using cellZone cz_solid_35
    - selected 2074 cell(s) with volume 0.00214288
Porosity region source35:
    selecting model: DarcyForchheimer
    creating porous zone: cz_solid_35
Selecting finite volume options model type explicitPorositySource
    Source: source36
    - selecting cells using cellZone cz_solid_36
    - selected 2180 cell(s) with volume 0.00214222
Porosity region source36:
    selecting model: DarcyForchheimer
    creating porous zone: cz_solid_36
Selecting finite volume options model type explicitPorositySource
    Source: source37
    - selecting cells using cellZone cz_solid_37
    - selected 1994 cell(s) with volume 0.00214006
Porosity region source37:
    selecting model: DarcyForchheimer
    creating porous zone: cz_solid_37
Selecting finite volume options model type explicitPorositySource
    Source: source38
    - selecting cells using cellZone cz_solid_38
    - selected 2074 cell(s) with volume 0.00214305
Porosity region source38:
    selecting model: DarcyForchheimer
    creating porous zone: cz_solid_38
Selecting finite volume options model type explicitPorositySource
    Source: source39
    - selecting cells using cellZone cz_solid_39
    - selected 2080 cell(s) with volume 0.00214317
Porosity region source39:
    selecting model: DarcyForchheimer
    creating porous zone: cz_solid_39
Selecting finite volume options model type explicitPorositySource
    Source: source40
    - selecting cells using cellZone cz_solid_40
    - selected 2286 cell(s) with volume 0.00214287
Porosity region source40:
    selecting model: DarcyForchheimer
    creating porous zone: cz_solid_40
Selecting finite volume options model type explicitPorositySource
    Source: source41
    - selecting cells using cellZone cz_solid_41
    - selected 2470 cell(s) with volume 0.00214331
Porosity region source41:
    selecting model: DarcyForchheimer
    creating porous zone: cz_solid_41
Selecting finite volume options model type explicitPorositySource
    Source: source42
    - selecting cells using cellZone cz_solid_42
    - selected 2216 cell(s) with volume 0.00214157
Porosity region source42:
    selecting model: DarcyForchheimer
    creating porous zone: cz_solid_42
Selecting finite volume options model type explicitPorositySource
    Source: source43
    - selecting cells using cellZone cz_solid_43
    - selected 2117 cell(s) with volume 0.0021428
Porosity region source43:
    selecting model: DarcyForchheimer
    creating porous zone: cz_solid_43
Selecting finite volume options model type explicitPorositySource
    Source: source44
    - selecting cells using cellZone cz_solid_44
    - selected 1883 cell(s) with volume 0.00214336
Porosity region source44:
    selecting model: DarcyForchheimer
    creating porous zone: cz_solid_44
Selecting finite volume options model type explicitPorositySource
    Source: source45
    - selecting cells using cellZone cz_solid_45
    - selected 1855 cell(s) with volume 0.00213898
Porosity region source45:
    selecting model: DarcyForchheimer
    creating porous zone: cz_solid_45
Selecting finite volume options model type explicitPorositySource
    Source: source46
    - selecting cells using cellZone cz_solid_46
    - selected 2295 cell(s) with volume 0.00214179
Porosity region source46:
    selecting model: DarcyForchheimer
    creating porous zone: cz_solid_46
Selecting finite volume options model type explicitPorositySource
    Source: source47
    - selecting cells using cellZone cz_solid_47
    - selected 2060 cell(s) with volume 0.00214275
Porosity region source47:
    selecting model: DarcyForchheimer
    creating porous zone: cz_solid_47
Selecting finite volume options model type explicitPorositySource
    Source: source48
    - selecting cells using cellZone cz_solid_48
    - selected 2426 cell(s) with volume 0.00214299
Porosity region source48:
    selecting model: DarcyForchheimer
    creating porous zone: cz_solid_48
Selecting finite volume options model type explicitPorositySource
    Source: source49
    - selecting cells using cellZone cz_solid_49
    - selected 2287 cell(s) with volume 0.00214559
Porosity region source49:
    selecting model: DarcyForchheimer
    creating porous zone: cz_solid_49
Selecting finite volume options model type explicitPorositySource
    Source: source50
    - selecting cells using cellZone cz_solid_50
    - selected 2183 cell(s) with volume 0.00214215
Porosity region source50:
    selecting model: DarcyForchheimer
    creating porous zone: cz_solid_50
Selecting finite volume options model type explicitPorositySource
    Source: source51
    - selecting cells using cellZone cz_solid_51
    - selected 2433 cell(s) with volume 0.00214229
Porosity region source51:
    selecting model: DarcyForchheimer
    creating porous zone: cz_solid_51
Selecting finite volume options model type explicitPorositySource
    Source: source52
    - selecting cells using cellZone cz_solid_52
    - selected 2365 cell(s) with volume 0.00214312
Porosity region source52:
    selecting model: DarcyForchheimer
    creating porous zone: cz_solid_52
Selecting finite volume options model type explicitPorositySource
    Source: source53
    - selecting cells using cellZone cz_solid_53
    - selected 2081 cell(s) with volume 0.00214082
Porosity region source53:
    selecting model: DarcyForchheimer
    creating porous zone: cz_solid_53
Selecting finite volume options model type explicitPorositySource
    Source: source54
    - selecting cells using cellZone cz_solid_54
    - selected 2501 cell(s) with volume 0.00214459
Porosity region source54:
    selecting model: DarcyForchheimer
    creating porous zone: cz_solid_54
Selecting finite volume options model type explicitPorositySource
    Source: source55
    - selecting cells using cellZone cz_solid_55
    - selected 2139 cell(s) with volume 0.0021428
Porosity region source55:
    selecting model: DarcyForchheimer
    creating porous zone: cz_solid_55
Selecting finite volume options model type explicitPorositySource
    Source: source56
    - selecting cells using cellZone cz_solid_56
    - selected 2246 cell(s) with volume 0.00214199
Porosity region source56:
    selecting model: DarcyForchheimer
    creating porous zone: cz_solid_56
Selecting finite volume options model type explicitPorositySource
    Source: source57
    - selecting cells using cellZone cz_solid_57
    - selected 2065 cell(s) with volume 0.00214014
Porosity region source57:
    selecting model: DarcyForchheimer
    creating porous zone: cz_solid_57
Selecting finite volume options model type explicitPorositySource
    Source: source58
    - selecting cells using cellZone cz_solid_58
    - selected 2139 cell(s) with volume 0.0021433
Porosity region source58:
    selecting model: DarcyForchheimer
    creating porous zone: cz_solid_58
Selecting finite volume options model type explicitPorositySource
    Source: source59
    - selecting cells using cellZone cz_solid_59
    - selected 2135 cell(s) with volume 0.00214309
Porosity region source59:
    selecting model: DarcyForchheimer
    creating porous zone: cz_solid_59
Selecting finite volume options model type explicitPorositySource
    Source: source60
    - selecting cells using cellZone cz_solid_60
    - selected 2213 cell(s) with volume 0.0021429
Porosity region source60:
    selecting model: DarcyForchheimer
    creating porous zone: cz_solid_60
Selecting finite volume options model type explicitPorositySource
    Source: source61
    - selecting cells using cellZone cz_solid_61
    - selected 2414 cell(s) with volume 0.00214332
Porosity region source61:
    selecting model: DarcyForchheimer
    creating porous zone: cz_solid_61
Selecting finite volume options model type explicitPorositySource
    Source: source62
    - selecting cells using cellZone cz_solid_62
    - selected 2153 cell(s) with volume 0.00214175
Porosity region source62:
    selecting model: DarcyForchheimer
    creating porous zone: cz_solid_62
Selecting finite volume options model type explicitPorositySource
    Source: source63
    - selecting cells using cellZone cz_solid_63
    - selected 2046 cell(s) with volume 0.00214278
Porosity region source63:
    selecting model: DarcyForchheimer
    creating porous zone: cz_solid_63
Selecting finite volume options model type explicitPorositySource
    Source: source64
    - selecting cells using cellZone cz_solid_64
    - selected 1844 cell(s) with volume 0.00214384
Porosity region source64:
    selecting model: DarcyForchheimer
    creating porous zone: cz_solid_64
Selecting finite volume options model type explicitPorositySource
    Source: source65
    - selecting cells using cellZone cz_solid_65
    - selected 1778 cell(s) with volume 0.00213911
Porosity region source65:
    selecting model: DarcyForchheimer
    creating porous zone: cz_solid_65
Selecting finite volume options model type explicitPorositySource
    Source: source66
    - selecting cells using cellZone cz_solid_66
    - selected 2234 cell(s) with volume 0.00214178
Porosity region source66:
    selecting model: DarcyForchheimer
    creating porous zone: cz_solid_66
Selecting finite volume options model type explicitPorositySource
    Source: source67
    - selecting cells using cellZone cz_solid_67
    - selected 1997 cell(s) with volume 0.00214268
Porosity region source67:
    selecting model: DarcyForchheimer
    creating porous zone: cz_solid_67
Selecting finite volume options model type explicitPorositySource
    Source: source68
    - selecting cells using cellZone cz_solid_68
    - selected 2384 cell(s) with volume 0.00214287
Porosity region source68:
    selecting model: DarcyForchheimer
    creating porous zone: cz_solid_68
Selecting finite volume options model type explicitPorositySource
    Source: source69
    - selecting cells using cellZone cz_solid_69
    - selected 2224 cell(s) with volume 0.00214577
Porosity region source69:
    selecting model: DarcyForchheimer
    creating porous zone: cz_solid_69
Selecting finite volume options model type explicitPorositySource
    Source: source70
    - selecting cells using cellZone cz_solid_70
    - selected 2115 cell(s) with volume 0.00214216
Porosity region source70:
    selecting model: DarcyForchheimer
    creating porous zone: cz_solid_70
Selecting finite volume options model type explicitPorositySource
    Source: source71
    - selecting cells using cellZone cz_solid_71
    - selected 2391 cell(s) with volume 0.00214237
Porosity region source71:
    selecting model: DarcyForchheimer
    creating porous zone: cz_solid_71
Selecting finite volume options model type explicitPorositySource
    Source: source72
    - selecting cells using cellZone cz_solid_72
    - selected 2295 cell(s) with volume 0.00214332
Porosity region source72:
    selecting model: DarcyForchheimer
    creating porous zone: cz_solid_72
Selecting finite volume options model type explicitPorositySource
    Source: source73
    - selecting cells using cellZone cz_solid_73
    - selected 2025 cell(s) with volume 0.00214075
Porosity region source73:
    selecting model: DarcyForchheimer
    creating porous zone: cz_solid_73
Selecting finite volume options model type explicitPorositySource
    Source: source74
    - selecting cells using cellZone cz_solid_74
    - selected 2473 cell(s) with volume 0.00214477
Porosity region source74:
    selecting model: DarcyForchheimer
    creating porous zone: cz_solid_74
Selecting finite volume options model type explicitPorositySource
    Source: source75
    - selecting cells using cellZone cz_solid_75
    - selected 2097 cell(s) with volume 0.00214282
Porosity region source75:
    selecting model: DarcyForchheimer
    creating porous zone: cz_solid_75
Selecting finite volume options model type explicitPorositySource
    Source: source76
    - selecting cells using cellZone cz_solid_76
    - selected 2176 cell(s) with volume 0.00214191
Porosity region source76:
    selecting model: DarcyForchheimer
    creating porous zone: cz_solid_76
Selecting finite volume options model type explicitPorositySource
    Source: source77
    - selecting cells using cellZone cz_solid_77
    - selected 2014 cell(s) with volume 0.00214023
Porosity region source77:
    selecting model: DarcyForchheimer
    creating porous zone: cz_solid_77
Selecting finite volume options model type explicitPorositySource
    Source: source78
    - selecting cells using cellZone cz_solid_78
    - selected 2074 cell(s) with volume 0.00214332
Porosity region source78:
    selecting model: DarcyForchheimer
    creating porous zone: cz_solid_78
Selecting finite volume options model type explicitPorositySource
    Source: source79
    - selecting cells using cellZone cz_solid_79
    - selected 2110 cell(s) with volume 0.00214281
Porosity region source79:
    selecting model: DarcyForchheimer
    creating porous zone: cz_solid_79
Selecting finite volume options model type explicitPorositySource
    Source: source80
    - selecting cells using cellZone cz_solid_80
    - selected 2210 cell(s) with volume 0.00214373
Porosity region source80:
    selecting model: DarcyForchheimer
    creating porous zone: cz_solid_80
Selecting finite volume options model type explicitPorositySource
    Source: source81
    - selecting cells using cellZone cz_solid_81
    - selected 2411 cell(s) with volume 0.00214421
Porosity region source81:
    selecting model: DarcyForchheimer
    creating porous zone: cz_solid_81
Selecting finite volume options model type explicitPorositySource
    Source: source82
    - selecting cells using cellZone cz_solid_82
    - selected 2144 cell(s) with volume 0.00214325
Porosity region source82:
    selecting model: DarcyForchheimer
    creating porous zone: cz_solid_82
Selecting finite volume options model type explicitPorositySource
    Source: source83
    - selecting cells using cellZone cz_solid_83
    - selected 2040 cell(s) with volume 0.00214375
Porosity region source83:
    selecting model: DarcyForchheimer
    creating porous zone: cz_solid_83
Selecting finite volume options model type explicitPorositySource
    Source: source84
    - selecting cells using cellZone cz_solid_84
    - selected 1838 cell(s) with volume 0.00214465
Porosity region source84:
    selecting model: DarcyForchheimer
    creating porous zone: cz_solid_84
Selecting finite volume options model type explicitPorositySource
    Source: source85
    - selecting cells using cellZone cz_solid_85
    - selected 1772 cell(s) with volume 0.00214037
Porosity region source85:
    selecting model: DarcyForchheimer
    creating porous zone: cz_solid_85
Selecting finite volume options model type explicitPorositySource
    Source: source86
    - selecting cells using cellZone cz_solid_86
    - selected 2228 cell(s) with volume 0.00214297
Porosity region source86:
    selecting model: DarcyForchheimer
    creating porous zone: cz_solid_86
Selecting finite volume options model type explicitPorositySource
    Source: source87
    - selecting cells using cellZone cz_solid_87
    - selected 1991 cell(s) with volume 0.00214371
Porosity region source87:
    selecting model: DarcyForchheimer
    creating porous zone: cz_solid_87
Selecting finite volume options model type explicitPorositySource
    Source: source88
    - selecting cells using cellZone cz_solid_88
    - selected 2384 cell(s) with volume 0.0021428
Porosity region source88:
    selecting model: DarcyForchheimer
    creating porous zone: cz_solid_88
Selecting finite volume options model type explicitPorositySource
    Source: source89
    - selecting cells using cellZone cz_solid_89
    - selected 2215 cell(s) with volume 0.00214641
Porosity region source89:
    selecting model: DarcyForchheimer
    creating porous zone: cz_solid_89
Selecting finite volume options model type explicitPorositySource
    Source: source90
    - selecting cells using cellZone cz_solid_90
    - selected 2106 cell(s) with volume 0.00214389
Porosity region source90:
    selecting model: DarcyForchheimer
    creating porous zone: cz_solid_90
Selecting finite volume options model type explicitPorositySource
    Source: source91
    - selecting cells using cellZone cz_solid_91
    - selected 2385 cell(s) with volume 0.0021433
Porosity region source91:
    selecting model: DarcyForchheimer
    creating porous zone: cz_solid_91
Selecting finite volume options model type explicitPorositySource
    Source: source92
    - selecting cells using cellZone cz_solid_92
    - selected 2292 cell(s) with volume 0.00214398
Porosity region source92:
    selecting model: DarcyForchheimer
    creating porous zone: cz_solid_92
Selecting finite volume options model type explicitPorositySource
    Source: source93
    - selecting cells using cellZone cz_solid_93
    - selected 2022 cell(s) with volume 0.0021419
Porosity region source93:
    selecting model: DarcyForchheimer
    creating porous zone: cz_solid_93
Selecting finite volume options model type explicitPorositySource
    Source: source94
    - selecting cells using cellZone cz_solid_94
    - selected 2473 cell(s) with volume 0.00214488
Porosity region source94:
    selecting model: DarcyForchheimer
    creating porous zone: cz_solid_94
Selecting finite volume options model type explicitPorositySource
    Source: source95
    - selecting cells using cellZone cz_solid_95
    - selected 2091 cell(s) with volume 0.00214374
Porosity region source95:
    selecting model: DarcyForchheimer
    creating porous zone: cz_solid_95
Selecting finite volume options model type explicitPorositySource
    Source: source96
    - selecting cells using cellZone cz_solid_96
    - selected 2176 cell(s) with volume 0.00214203
Porosity region source96:
    selecting model: DarcyForchheimer
    creating porous zone: cz_solid_96
Selecting finite volume options model type explicitPorositySource
    Source: source97
    - selecting cells using cellZone cz_solid_97
    - selected 2011 cell(s) with volume 0.0021411
Porosity region source97:
    selecting model: DarcyForchheimer
    creating porous zone: cz_solid_97
Selecting finite volume options model type explicitPorositySource
    Source: source98
    - selecting cells using cellZone cz_solid_98
    - selected 2074 cell(s) with volume 0.00214353
Porosity region source98:
    selecting model: DarcyForchheimer
    creating porous zone: cz_solid_98
Selecting finite volume options model type explicitPorositySource
    Source: source99
    - selecting cells using cellZone cz_solid_99
    - selected 2107 cell(s) with volume 0.00214367
Porosity region source99:
    selecting model: DarcyForchheimer
    creating porous zone: cz_solid_99

Starting time loop

forces porousforces:
--> FOAM Warning : 
    From function Foam::labelHashSet Foam::polyBoundaryMesh::patchSet(const Foam::UList<Foam::wordRe>&, bool, bool) const
    in file meshes/polyMesh/polyBoundaryMesh/polyBoundaryMesh.C at line 798
    Cannot find any patch or group names matching solid_to_fluid
    Including porosity effects


surfaceFieldValue massFlowAtFilter_0:
    total faces  = 1813
    total area   = 0.101705




surfaceFieldValue massFlowAtFilter_1:
    total faces  = 1797
    total area   = 0.101726




surfaceFieldValue massFlowAtFilter_2:
    total faces  = 1747
    total area   = 0.101671




surfaceFieldValue massFlowAtFilter_3:
    total faces  = 1710
    total area   = 0.101708




surfaceFieldValue massFlowAtFilter_4:
    total faces  = 1686
    total area   = 0.101804




surfaceFieldValue massFlowAtFilter_5:
    total faces  = 1596
    total area   = 0.101648




surfaceFieldValue massFlowAtFilter_6:
    total faces  = 1712
    total area   = 0.1017




surfaceFieldValue massFlowAtFilter_7:
    total faces  = 1658
    total area   = 0.101715




surfaceFieldValue massFlowAtFilter_8:
    total faces  = 1872
    total area   = 0.101752




surfaceFieldValue massFlowAtFilter_9:
    total faces  = 1906
    total area   = 0.101751




surfaceFieldValue massFlowAtFilter_10:
    total faces  = 1712
    total area   = 0.101707




surfaceFieldValue massFlowAtFilter_11:
    total faces  = 1804
    total area   = 0.101697




surfaceFieldValue massFlowAtFilter_12:
    total faces  = 1797
    total area   = 0.10172




surfaceFieldValue massFlowAtFilter_13:
    total faces  = 1732
    total area   = 0.101722




surfaceFieldValue massFlowAtFilter_14:
    total faces  = 1870
    total area   = 0.101744




surfaceFieldValue massFlowAtFilter_15:
    total faces  = 1672
    total area   = 0.101727




surfaceFieldValue massFlowAtFilter_16:
    total faces  = 1707
    total area   = 0.101703




surfaceFieldValue massFlowAtFilter_17:
    total faces  = 1652
    total area   = 0.101659




surfaceFieldValue massFlowAtFilter_18:
    total faces  = 1739
    total area   = 0.10179




surfaceFieldValue massFlowAtFilter_19:
    total faces  = 1705
    total area   = 0.101723




surfaceFieldValue massFlowAtFilter_20:
    total faces  = 1802
    total area   = 0.101656




surfaceFieldValue massFlowAtFilter_21:
    total faces  = 1786
    total area   = 0.101705




surfaceFieldValue massFlowAtFilter_22:
    total faces  = 1736
    total area   = 0.101613




surfaceFieldValue massFlowAtFilter_23:
    total faces  = 1694
    total area   = 0.101671




surfaceFieldValue massFlowAtFilter_24:
    total faces  = 1670
    total area   = 0.10167




surfaceFieldValue massFlowAtFilter_25:
    total faces  = 1582
    total area   = 0.101596




surfaceFieldValue massFlowAtFilter_26:
    total faces  = 1698
    total area   = 0.101679




surfaceFieldValue massFlowAtFilter_27:
    total faces  = 1638
    total area   = 0.101641




surfaceFieldValue massFlowAtFilter_28:
    total faces  = 1856
    total area   = 0.101611




surfaceFieldValue massFlowAtFilter_29:
    total faces  = 1888
    total area   = 0.101641




surfaceFieldValue massFlowAtFilter_30:
    total faces  = 1698
    total area   = 0.101689




surfaceFieldValue massFlowAtFilter_31:
    total faces  = 1784
    total area   = 0.10167




surfaceFieldValue massFlowAtFilter_32:
    total faces  = 1786
    total area   = 0.1017




surfaceFieldValue massFlowAtFilter_33:
    total faces  = 1716
    total area   = 0.101599




surfaceFieldValue massFlowAtFilter_34:
    total faces  = 1854
    total area   = 0.101656




surfaceFieldValue massFlowAtFilter_35:
    total faces  = 1652
    total area   = 0.101688




surfaceFieldValue massFlowAtFilter_36:
    total faces  = 1690
    total area   = 0.101666




surfaceFieldValue massFlowAtFilter_37:
    total faces  = 1638
    total area   = 0.101603




surfaceFieldValue massFlowAtFilter_38:
    total faces  = 1720
    total area   = 0.101636




surfaceFieldValue massFlowAtFilter_39:
    total faces  = 1694
    total area   = 0.101663




surfaceFieldValue massFlowAtFilter_40:
    total faces  = 1846
    total area   = 0.101704




surfaceFieldValue massFlowAtFilter_41:
    total faces  = 1830
    total area   = 0.101712




surfaceFieldValue massFlowAtFilter_42:
    total faces  = 1780
    total area   = 0.101668




surfaceFieldValue massFlowAtFilter_43:
    total faces  = 1740
    total area   = 0.101711




surfaceFieldValue massFlowAtFilter_44:
    total faces  = 1716
    total area   = 0.101803




surfaceFieldValue massFlowAtFilter_45:
    total faces  = 1626
    total area   = 0.101644




surfaceFieldValue massFlowAtFilter_46:
    total faces  = 1742
    total area   = 0.101698




surfaceFieldValue massFlowAtFilter_47:
    total faces  = 1682
    total area   = 0.101718




surfaceFieldValue massFlowAtFilter_48:
    total faces  = 1902
    total area   = 0.101763




surfaceFieldValue massFlowAtFilter_49:
    total faces  = 1936
    total area   = 0.101743




surfaceFieldValue massFlowAtFilter_50:
    total faces  = 1742
    total area   = 0.1017




surfaceFieldValue massFlowAtFilter_51:
    total faces  = 1828
    total area   = 0.101689




surfaceFieldValue massFlowAtFilter_52:
    total faces  = 1830
    total area   = 0.101706




surfaceFieldValue massFlowAtFilter_53:
    total faces  = 1762
    total area   = 0.101706




surfaceFieldValue massFlowAtFilter_54:
    total faces  = 1900
    total area   = 0.101727




surfaceFieldValue massFlowAtFilter_55:
    total faces  = 1696
    total area   = 0.101728




surfaceFieldValue massFlowAtFilter_56:
    total faces  = 1734
    total area   = 0.1017




surfaceFieldValue massFlowAtFilter_57:
    total faces  = 1682
    total area   = 0.101664




surfaceFieldValue massFlowAtFilter_58:
    total faces  = 1766
    total area   = 0.101789




surfaceFieldValue massFlowAtFilter_59:
    total faces  = 1735
    total area   = 0.101724




surfaceFieldValue massFlowAtFilter_60:
    total faces  = 1847
    total area   = 0.101697




surfaceFieldValue massFlowAtFilter_61:
    total faces  = 1830
    total area   = 0.101709




surfaceFieldValue massFlowAtFilter_62:
    total faces  = 1777
    total area   = 0.101665




surfaceFieldValue massFlowAtFilter_63:
    total faces  = 1731
    total area   = 0.101706




surfaceFieldValue massFlowAtFilter_64:
    total faces  = 1723
    total area   = 0.101793




surfaceFieldValue massFlowAtFilter_65:
    total faces  = 1617
    total area   = 0.101639




surfaceFieldValue massFlowAtFilter_66:
    total faces  = 1736
    total area   = 0.101695




surfaceFieldValue massFlowAtFilter_67:
    total faces  = 1673
    total area   = 0.101704




surfaceFieldValue massFlowAtFilter_68:
    total faces  = 1902
    total area   = 0.101742




surfaceFieldValue massFlowAtFilter_69:
    total faces  = 1933
    total area   = 0.101728




surfaceFieldValue massFlowAtFilter_70:
    total faces  = 1736
    total area   = 0.101701




surfaceFieldValue massFlowAtFilter_71:
    total faces  = 1828
    total area   = 0.101692




surfaceFieldValue massFlowAtFilter_72:
    total faces  = 1830
    total area   = 0.101704




surfaceFieldValue massFlowAtFilter_73:
    total faces  = 1759
    total area   = 0.10171




surfaceFieldValue massFlowAtFilter_74:
    total faces  = 1900
    total area   = 0.101706




surfaceFieldValue massFlowAtFilter_75:
    total faces  = 1693
    total area   = 0.101723




surfaceFieldValue massFlowAtFilter_76:
    total faces  = 1728
    total area   = 0.10169




surfaceFieldValue massFlowAtFilter_77:
    total faces  = 1680
    total area   = 0.101657




surfaceFieldValue massFlowAtFilter_78:
    total faces  = 1763
    total area   = 0.101792




surfaceFieldValue massFlowAtFilter_79:
    total faces  = 1735
    total area   = 0.101723




surfaceFieldValue massFlowAtFilter_80:
    total faces  = 1852
    total area   = 0.101609




surfaceFieldValue massFlowAtFilter_81:
    total faces  = 1835
    total area   = 0.101648




surfaceFieldValue massFlowAtFilter_82:
    total faces  = 1784
    total area   = 0.101588




surfaceFieldValue massFlowAtFilter_83:
    total faces  = 1737
    total area   = 0.101641




surfaceFieldValue massFlowAtFilter_84:
    total faces  = 1729
    total area   = 0.101684




surfaceFieldValue massFlowAtFilter_85:
    total faces  = 1623
    total area   = 0.101504




surfaceFieldValue massFlowAtFilter_86:
    total faces  = 1742
    total area   = 0.101624




surfaceFieldValue massFlowAtFilter_87:
    total faces  = 1679
    total area   = 0.101582




surfaceFieldValue massFlowAtFilter_88:
    total faces  = 1902
    total area   = 0.101599




surfaceFieldValue massFlowAtFilter_89:
    total faces  = 1940
    total area   = 0.101633




surfaceFieldValue massFlowAtFilter_90:
    total faces  = 1743
    total area   = 0.101634




surfaceFieldValue massFlowAtFilter_91:
    total faces  = 1834
    total area   = 0.1016




surfaceFieldValue massFlowAtFilter_92:
    total faces  = 1835
    total area   = 0.101631




surfaceFieldValue massFlowAtFilter_93:
    total faces  = 1764
    total area   = 0.101552




surfaceFieldValue massFlowAtFilter_94:
    total faces  = 1900
    total area   = 0.101612




surfaceFieldValue massFlowAtFilter_95:
    total faces  = 1699
    total area   = 0.101624




surfaceFieldValue massFlowAtFilter_96:
    total faces  = 1728
    total area   = 0.101616




surfaceFieldValue massFlowAtFilter_97:
    total faces  = 1685
    total area   = 0.101536




surfaceFieldValue massFlowAtFilter_98:
    total faces  = 1763
    total area   = 0.101662




surfaceFieldValue massFlowAtFilter_99:
    total faces  = 1740
    total area   = 0.101608


Time = 1

DILUPBiCG:  Solving for Ux, Initial residual = 1, Final residual = 1.96953e-06, No Iterations 6
DILUPBiCG:  Solving for Uy, Initial residual = 1, Final residual = 1.59539e-06, No Iterations 7
DILUPBiCG:  Solving for Uz, Initial residual = 1, Final residual = 5.60275e-06, No Iterations 6
DICPCG:  Solving for p, Initial residual = 1, Final residual = 0.0986575, No Iterations 327
DICPCG:  Solving for p, Initial residual = 0.00340038, Final residual = 0.000233051, No Iterations 4
DICPCG:  Solving for p, Initial residual = 0.000465968, Final residual = 4.59262e-05, No Iterations 28
time step continuity errors : sum local = 0.0491013, global = -0.000618105, cumulative = -0.000618105
DILUPBiCG:  Solving for epsilon, Initial residual = 0.0523161, Final residual = 9.59574e-06, No Iterations 3
DILUPBiCG:  Solving for k, Initial residual = 1, Final residual = 6.08183e-07, No Iterations 6
ExecutionTime = 6.82 s  ClockTime = 7 s

Time = 2

DILUPBiCG:  Solving for Ux, Initial residual = 0.000131634, Final residual = 3.37276e-06, No Iterations 2
DILUPBiCG:  Solving for Uy, Initial residual = 5.73516e-05, Final residual = 2.88139e-07, No Iterations 3
DILUPBiCG:  Solving for Uz, Initial residual = 0.000118886, Final residual = 2.46511e-06, No Iterations 2
DICPCG:  Solving for p, Initial residual = 0.0101016, Final residual = 0.000995182, No Iterations 129
DICPCG:  Solving for p, Initial residual = 0.00554276, Final residual = 0.000547038, No Iterations 8
DICPCG:  Solving for p, Initial residual = 0.000898674, Final residual = 8.67262e-05, No Iterations 291
time step continuity errors : sum local = 0.0235579, global = 0.000252458, cumulative = -0.000365648
DILUPBiCG:  Solving for epsilon, Initial residual = 0.0134224, Final residual = 7.83034e-07, No Iterations 4
DILUPBiCG:  Solving for k, Initial residual = 0.522252, Final residual = 3.09595e-08, No Iterations 7
ExecutionTime = 11.93 s  ClockTime = 12 s

Time = 3

DILUPBiCG:  Solving for Ux, Initial residual = 1.93989e-05, Final residual = 3.28152e-06, No Iterations 1
DILUPBiCG:  Solving for Uy, Initial residual = 1.17501e-05, Final residual = 2.2066e-06, No Iterations 1
DILUPBiCG:  Solving for Uz, Initial residual = 2.86862e-05, Final residual = 8.574e-06, No Iterations 1
DICPCG:  Solving for p, Initial residual = 0.0200131, Final residual = 0.00188644, No Iterations 298
DICPCG:  Solving for p, Initial residual = 0.00732722, Final residual = 0.000595015, No Iterations 4
DICPCG:  Solving for p, Initial residual = 0.00101059, Final residual = 9.928e-05, No Iterations 53
time step continuity errors : sum local = 0.0541347, global = 0.000613669, cumulative = 0.000248021
DILUPBiCG:  Solving for epsilon, Initial residual = 0.0178776, Final residual = 1.14994e-06, No Iterations 4
DILUPBiCG:  Solving for k, Initial residual = 0.262392, Final residual = 9.8893e-07, No Iterations 6
ExecutionTime = 16.29 s  ClockTime = 16 s

Time = 4

DILUPBiCG:  Solving for Ux, Initial residual = 5.31111e-06, Final residual = 5.31111e-06, No Iterations 0
DILUPBiCG:  Solving for Uy, Initial residual = 2.00701e-06, Final residual = 2.00701e-06, No Iterations 0
DILUPBiCG:  Solving for Uz, Initial residual = 6.77105e-06, Final residual = 6.77105e-06, No Iterations 0
DICPCG:  Solving for p, Initial residual = 0.0768464, Final residual = 0.00743481, No Iterations 306
DICPCG:  Solving for p, Initial residual = 0.00529442, Final residual = 0.000391618, No Iterations 4
DICPCG:  Solving for p, Initial residual = 0.000705253, Final residual = 7.0004e-05, No Iterations 46
time step continuity errors : sum local = 0.0354111, global = 0.000293268, cumulative = 0.000541289
DILUPBiCG:  Solving for epsilon, Initial residual = 0.0170024, Final residual = 6.12225e-06, No Iterations 3
DILUPBiCG:  Solving for k, Initial residual = 0.153562, Final residual = 6.36095e-07, No Iterations 5
ExecutionTime = 20.49 s  ClockTime = 21 s

Time = 5

DILUPBiCG:  Solving for Ux, Initial residual = 1.56141e-05, Final residual = 3.0958e-06, No Iterations 1
DILUPBiCG:  Solving for Uy, Initial residual = 8.78935e-06, Final residual = 8.78935e-06, No Iterations 0
DILUPBiCG:  Solving for Uz, Initial residual = 1.47466e-05, Final residual = 3.54671e-06, No Iterations 1
DICPCG:  Solving for p, Initial residual = 0.0209612, Final residual = 0.00202688, No Iterations 48
DICPCG:  Solving for p, Initial residual = 0.00642751, Final residual = 0.000625268, No Iterations 273
DICPCG:  Solving for p, Initial residual = 0.00210123, Final residual = 0.000208355, No Iterations 5
time step continuity errors : sum local = 0.0662521, global = 0.000660546, cumulative = 0.00120184
DILUPBiCG:  Solving for epsilon, Initial residual = 0.0143712, Final residual = 4.32225e-06, No Iterations 3
DILUPBiCG:  Solving for k, Initial residual = 0.109588, Final residual = 5.30554e-07, No Iterations 5
ExecutionTime = 24.5 s  ClockTime = 25 s

Time = 6

DILUPBiCG:  Solving for Ux, Initial residual = 1.95785e-05, Final residual = 4.32927e-06, No Iterations 1
DILUPBiCG:  Solving for Uy, Initial residual = 1.28507e-05, Final residual = 2.54772e-06, No Iterations 1
DILUPBiCG:  Solving for Uz, Initial residual = 1.6604e-05, Final residual = 4.99643e-06, No Iterations 1
DICPCG:  Solving for p, Initial residual = 0.0244059, Final residual = 0.00241928, No Iterations 297
DICPCG:  Solving for p, Initial residual = 0.00806756, Final residual = 0.000799359, No Iterations 5
DICPCG:  Solving for p, Initial residual = 0.00119386, Final residual = 0.00011343, No Iterations 62
time step continuity errors : sum local = 0.045842, global = -0.000855666, cumulative = 0.000346169
DILUPBiCG:  Solving for epsilon, Initial residual = 0.0135003, Final residual = 4.64966e-06, No Iterations 3
DILUPBiCG:  Solving for k, Initial residual = 0.0929924, Final residual = 5.0288e-07, No Iterations 5
ExecutionTime = 28.85 s  ClockTime = 29 s

Time = 7

DILUPBiCG:  Solving for Ux, Initial residual = 1.25869e-05, Final residual = 4.2785e-07, No Iterations 2
DILUPBiCG:  Solving for Uy, Initial residual = 4.17432e-06, Final residual = 4.17432e-06, No Iterations 0
DILUPBiCG:  Solving for Uz, Initial residual = 8.0903e-06, Final residual = 8.0903e-06, No Iterations 0
DICPCG:  Solving for p, Initial residual = 0.084732, Final residual = 0.00808232, No Iterations 297
DICPCG:  Solving for p, Initial residual = 0.00481333, Final residual = 0.000457566, No Iterations 4
DICPCG:  Solving for p, Initial residual = 0.000694462, Final residual = 6.81244e-05, No Iterations 46
time step continuity errors : sum local = 0.0302444, global = 6.93368e-06, cumulative = 0.000353103
DILUPBiCG:  Solving for epsilon, Initial residual = 0.0122723, Final residual = 4.04967e-06, No Iterations 3
DILUPBiCG:  Solving for k, Initial residual = 0.076566, Final residual = 4.80428e-08, No Iterations 6
ExecutionTime = 33.06 s  ClockTime = 33 s

Time = 8

DILUPBiCG:  Solving for Ux, Initial residual = 1.72919e-05, Final residual = 3.37777e-06, No Iterations 1
DILUPBiCG:  Solving for Uy, Initial residual = 1.08524e-05, Final residual = 2.15256e-06, No Iterations 1
DILUPBiCG:  Solving for Uz, Initial residual = 1.6694e-05, Final residual = 3.89876e-06, No Iterations 1
DICPCG:  Solving for p, Initial residual = 0.0274918, Final residual = 0.00266774, No Iterations 67
DICPCG:  Solving for p, Initial residual = 0.00768256, Final residual = 0.00075289, No Iterations 83
DICPCG:  Solving for p, Initial residual = 0.00196144, Final residual = 0.000194757, No Iterations 227
time step continuity errors : sum local = 0.0220998, global = -0.000440454, cumulative = -8.73514e-05
DILUPBiCG:  Solving for epsilon, Initial residual = 0.0121784, Final residual = 7.51039e-06, No Iterations 3
DILUPBiCG:  Solving for k, Initial residual = 0.0641472, Final residual = 4.285e-08, No Iterations 6
ExecutionTime = 37.55 s  ClockTime = 38 s

Time = 9

DILUPBiCG:  Solving for Ux, Initial residual = 6.19652e-06, Final residual = 6.19652e-06, No Iterations 0
DILUPBiCG:  Solving for Uy, Initial residual = 6.2519e-06, Final residual = 6.2519e-06, No Iterations 0
DILUPBiCG:  Solving for Uz, Initial residual = 7.90721e-06, Final residual = 7.90721e-06, No Iterations 0
DICPCG:  Solving for p, Initial residual = 0.0216173, Final residual = 0.00212818, No Iterations 103
DICPCG:  Solving for p, Initial residual = 0.00805746, Final residual = 0.00079581, No Iterations 227
DICPCG:  Solving for p, Initial residual = 0.018511, Final residual = 0.00180735, No Iterations 7
time step continuity errors : sum local = 0.042973, global = 0.00259326, cumulative = 0.00250591
DILUPBiCG:  Solving for epsilon, Initial residual = 0.0114134, Final residual = 3.858e-06, No Iterations 3
DILUPBiCG:  Solving for k, Initial residual = 0.0570153, Final residual = 4.54392e-08, No Iterations 6
ExecutionTime = 41.62 s  ClockTime = 42 s

Time = 10

DILUPBiCG:  Solving for Ux, Initial residual = 3.51692e-06, Final residual = 3.51692e-06, No Iterations 0
DILUPBiCG:  Solving for Uy, Initial residual = 3.77718e-06, Final residual = 3.77718e-06, No Iterations 0
DILUPBiCG:  Solving for Uz, Initial residual = 4.62034e-06, Final residual = 4.62034e-06, No Iterations 0
DICPCG:  Solving for p, Initial residual = 0.0197739, Final residual = 0.00182919, No Iterations 298
DICPCG:  Solving for p, Initial residual = 0.00931084, Final residual = 0.000907951, No Iterations 5
DICPCG:  Solving for p, Initial residual = 0.00138158, Final residual = 0.000136655, No Iterations 61
time step continuity errors : sum local = 0.0116628, global = 0.000197186, cumulative = 0.0027031
DILUPBiCG:  Solving for epsilon, Initial residual = 0.0107789, Final residual = 3.19153e-06, No Iterations 3
DILUPBiCG:  Solving for k, Initial residual = 0.0519115, Final residual = 5.37208e-08, No Iterations 6
ExecutionTime = 45.89 s  ClockTime = 46 s

Time = 11

DILUPBiCG:  Solving for Ux, Initial residual = 5.09502e-06, Final residual = 5.09502e-06, No Iterations 0
DILUPBiCG:  Solving for Uy, Initial residual = 1.36814e-06, Final residual = 1.36814e-06, No Iterations 0
DILUPBiCG:  Solving for Uz, Initial residual = 4.74115e-06, Final residual = 4.74115e-06, No Iterations 0
DICPCG:  Solving for p, Initial residual = 0.0334051, Final residual = 0.00327283, No Iterations 298
DICPCG:  Solving for p, Initial residual = 0.00543016, Final residual = 0.000530184, No Iterations 4
DICPCG:  Solving for p, Initial residual = 0.000797572, Final residual = 7.62955e-05, No Iterations 61
time step continuity errors : sum local = 0.00787351, global = 0.000144318, cumulative = 0.00284742
DILUPBiCG:  Solving for epsilon, Initial residual = 0.010123, Final residual = 2.87302e-06, No Iterations 3
DILUPBiCG:  Solving for k, Initial residual = 0.047914, Final residual = 6.17013e-08, No Iterations 6
ExecutionTime = 50.17 s  ClockTime = 50 s

Time = 12

DILUPBiCG:  Solving for Ux, Initial residual = 6.40154e-06, Final residual = 6.40154e-06, No Iterations 0
DILUPBiCG:  Solving for Uy, Initial residual = 1.39965e-06, Final residual = 1.39965e-06, No Iterations 0
DILUPBiCG:  Solving for Uz, Initial residual = 5.57373e-06, Final residual = 5.57373e-06, No Iterations 0
DICPCG:  Solving for p, Initial residual = 0.0522736, Final residual = 0.00491669, No Iterations 294
DICPCG:  Solving for p, Initial residual = 0.00405869, Final residual = 0.000403986, No Iterations 13
DICPCG:  Solving for p, Initial residual = 0.00069155, Final residual = 6.87169e-05, No Iterations 40
time step continuity errors : sum local = 0.00581657, global = 6.59366e-06, cumulative = 0.00285401
DILUPBiCG:  Solving for epsilon, Initial residual = 0.0095402, Final residual = 2.69138e-06, No Iterations 3
DILUPBiCG:  Solving for k, Initial residual = 0.0447425, Final residual = 7.17751e-07, No Iterations 5
ExecutionTime = 54.31 s  ClockTime = 54 s

Time = 13

DILUPBiCG:  Solving for Ux, Initial residual = 6.13303e-06, Final residual = 6.13303e-06, No Iterations 0
DILUPBiCG:  Solving for Uy, Initial residual = 2.3094e-06, Final residual = 2.3094e-06, No Iterations 0
DILUPBiCG:  Solving for Uz, Initial residual = 5.72032e-06, Final residual = 5.72032e-06, No Iterations 0
DICPCG:  Solving for p, Initial residual = 0.026236, Final residual = 0.00261398, No Iterations 68
DICPCG:  Solving for p, Initial residual = 0.00768691, Final residual = 0.000748641, No Iterations 73
DICPCG:  Solving for p, Initial residual = 0.00211613, Final residual = 0.000202809, No Iterations 252
time step continuity errors : sum local = 0.00760731, global = 0.000114164, cumulative = 0.00296817
DILUPBiCG:  Solving for epsilon, Initial residual = 0.00915877, Final residual = 2.99726e-06, No Iterations 3
DILUPBiCG:  Solving for k, Initial residual = 0.042144, Final residual = 6.31963e-07, No Iterations 5
ExecutionTime = 58.78 s  ClockTime = 59 s

Time = 14

DILUPBiCG:  Solving for Ux, Initial residual = 4.53395e-06, Final residual = 4.53395e-06, No Iterations 0
DILUPBiCG:  Solving for Uy, Initial residual = 2.52371e-06, Final residual = 2.52371e-06, No Iterations 0
DILUPBiCG:  Solving for Uz, Initial residual = 4.60096e-06, Final residual = 4.60096e-06, No Iterations 0
DICPCG:  Solving for p, Initial residual = 0.0218681, Final residual = 0.00209893, No Iterations 100
DICPCG:  Solving for p, Initial residual = 0.00772476, Final residual = 0.000767076, No Iterations 274
DICPCG:  Solving for p, Initial residual = 0.0245375, Final residual = 0.00237017, No Iterations 7
time step continuity errors : sum local = 0.0139499, global = 0.000237595, cumulative = 0.00320577
DILUPBiCG:  Solving for epsilon, Initial residual = 0.00892468, Final residual = 9.83424e-06, No Iterations 3
DILUPBiCG:  Solving for k, Initial residual = 0.0398472, Final residual = 8.16905e-07, No Iterations 5
ExecutionTime = 63.18 s  ClockTime = 63 s

Time = 15

DILUPBiCG:  Solving for Ux, Initial residual = 2.82535e-06, Final residual = 2.82535e-06, No Iterations 0
DILUPBiCG:  Solving for Uy, Initial residual = 1.95182e-06, Final residual = 1.95182e-06, No Iterations 0
DILUPBiCG:  Solving for Uz, Initial residual = 3.11445e-06, Final residual = 3.11445e-06, No Iterations 0
DICPCG:  Solving for p, Initial residual = 0.0217495, Final residual = 0.00209396, No Iterations 298
DICPCG:  Solving for p, Initial residual = 0.0109521, Final residual = 0.00106499, No Iterations 28
DICPCG:  Solving for p, Initial residual = 0.00217152, Final residual = 0.000215266, No Iterations 51
time step continuity errors : sum local = 0.00634103, global = -5.69058e-05, cumulative = 0.00314886
DILUPBiCG:  Solving for epsilon, Initial residual = 0.00885829, Final residual = 3.09996e-06, No Iterations 3
DILUPBiCG:  Solving for k, Initial residual = 0.0377119, Final residual = 3.09688e-08, No Iterations 6
ExecutionTime = 67.6 s  ClockTime = 68 s

Time = 16

DILUPBiCG:  Solving for Ux, Initial residual = 2.45713e-06, Final residual = 2.45713e-06, No Iterations 0
DILUPBiCG:  Solving for Uy, Initial residual = 9.91456e-07, Final residual = 9.91456e-07, No Iterations 0
DILUPBiCG:  Solving for Uz, Initial residual = 2.58992e-06, Final residual = 2.58992e-06, No Iterations 0
DICPCG:  Solving for p, Initial residual = 0.0321876, Final residual = 0.00306884, No Iterations 299
DICPCG:  Solving for p, Initial residual = 0.00589277, Final residual = 0.000588626, No Iterations 5
DICPCG:  Solving for p, Initial residual = 0.000880037, Final residual = 8.37201e-05, No Iterations 61
time step continuity errors : sum local = 0.00363796, global = -8.20724e-05, cumulative = 0.00306679
DILUPBiCG:  Solving for epsilon, Initial residual = 0.00881024, Final residual = 3.74169e-06, No Iterations 3
DILUPBiCG:  Solving for k, Initial residual = 0.0356849, Final residual = 2.35462e-08, No Iterations 6
ExecutionTime = 71.89 s  ClockTime = 72 s

Time = 17

DILUPBiCG:  Solving for Ux, Initial residual = 2.74264e-06, Final residual = 2.74264e-06, No Iterations 0
DILUPBiCG:  Solving for Uy, Initial residual = 5.20208e-07, Final residual = 5.20208e-07, No Iterations 0
DILUPBiCG:  Solving for Uz, Initial residual = 2.78872e-06, Final residual = 2.78872e-06, No Iterations 0
DICPCG:  Solving for p, Initial residual = 0.0599086, Final residual = 0.00586393, No Iterations 295
DICPCG:  Solving for p, Initial residual = 0.00396615, Final residual = 0.000392196, No Iterations 8
DICPCG:  Solving for p, Initial residual = 0.000624739, Final residual = 5.87194e-05, No Iterations 58
time step continuity errors : sum local = 0.00244219, global = -4.27729e-05, cumulative = 0.00302402
DILUPBiCG:  Solving for epsilon, Initial residual = 0.00866513, Final residual = 3.39604e-06, No Iterations 3
DILUPBiCG:  Solving for k, Initial residual = 0.0337623, Final residual = 2.30242e-08, No Iterations 6
ExecutionTime = 76.16 s  ClockTime = 76 s

Time = 18

DILUPBiCG:  Solving for Ux, Initial residual = 2.65102e-06, Final residual = 2.65102e-06, No Iterations 0
DILUPBiCG:  Solving for Uy, Initial residual = 9.52514e-07, Final residual = 9.52514e-07, No Iterations 0
DILUPBiCG:  Solving for Uz, Initial residual = 2.91687e-06, Final residual = 2.91687e-06, No Iterations 0
DICPCG:  Solving for p, Initial residual = 0.0226998, Final residual = 0.00226398, No Iterations 45
DICPCG:  Solving for p, Initial residual = 0.00570412, Final residual = 0.000558828, No Iterations 278
DICPCG:  Solving for p, Initial residual = 0.00195079, Final residual = 0.00018273, No Iterations 5
time step continuity errors : sum local = 0.00533597, global = -1.35886e-05, cumulative = 0.00301043
DILUPBiCG:  Solving for epsilon, Initial residual = 0.00846913, Final residual = 3.02229e-06, No Iterations 3
DILUPBiCG:  Solving for k, Initial residual = 0.0320146, Final residual = 9.67768e-07, No Iterations 4
ExecutionTime = 80.14 s  ClockTime = 80 s

Time = 19

DILUPBiCG:  Solving for Ux, Initial residual = 2.18491e-06, Final residual = 2.18491e-06, No Iterations 0
DILUPBiCG:  Solving for Uy, Initial residual = 1.11422e-06, Final residual = 1.11422e-06, No Iterations 0
DILUPBiCG:  Solving for Uz, Initial residual = 2.69117e-06, Final residual = 2.69117e-06, No Iterations 0
DICPCG:  Solving for p, Initial residual = 0.017568, Final residual = 0.00173129, No Iterations 95
DICPCG:  Solving for p, Initial residual = 0.00556049, Final residual = 0.000542337, No Iterations 264
DICPCG:  Solving for p, Initial residual = 0.00312072, Final residual = 0.000307048, No Iterations 32
time step continuity errors : sum local = 0.00405475, global = -1.92733e-05, cumulative = 0.00299115
DILUPBiCG:  Solving for epsilon, Initial residual = 0.0082779, Final residual = 2.89759e-06, No Iterations 3
DILUPBiCG:  Solving for k, Initial residual = 0.0304677, Final residual = 8.0377e-07, No Iterations 4
ExecutionTime = 84.61 s  ClockTime = 85 s

Time = 20

DILUPBiCG:  Solving for Ux, Initial residual = 1.73048e-06, Final residual = 1.73048e-06, No Iterations 0
DILUPBiCG:  Solving for Uy, Initial residual = 9.67993e-07, Final residual = 9.67993e-07, No Iterations 0
DILUPBiCG:  Solving for Uz, Initial residual = 2.32539e-06, Final residual = 2.32539e-06, No Iterations 0
DICPCG:  Solving for p, Initial residual = 0.0161211, Final residual = 0.00157302, No Iterations 298
DICPCG:  Solving for p, Initial residual = 0.0287133, Final residual = 0.00285687, No Iterations 34
DICPCG:  Solving for p, Initial residual = 0.00638798, Final residual = 0.000632578, No Iterations 48
time step continuity errors : sum local = 0.00276488, global = 2.71601e-05, cumulative = 0.00301831
DILUPBiCG:  Solving for epsilon, Initial residual = 0.00811894, Final residual = 2.99571e-06, No Iterations 3
DILUPBiCG:  Solving for k, Initial residual = 0.0291282, Final residual = 8.01624e-07, No Iterations 4
ExecutionTime = 89.02 s  ClockTime = 89 s

forces porousforces write:
    sum of forces:
        pressure : (0 0 0)
        viscous  : (0 0 0)
        porous   : (90029.6 1.40756e-13 66470.4)
    sum of moments:
        pressure : (0 0 0)
        viscous  : (0 0 0)
        porous   : (58809.4 13359.1 -80002.8)

volFieldValue volFieldValue_0 write:
    volIntegrate(cz_solid_0) of U = (1.52322e-09 -4.3106e-09 -3.17232e-09)

surfaceFieldValue massFlowAtFilter_0 write:
    sum(fz_solid_0) of phi = -5.65733e-05

volFieldValue volFieldValue_1 write:
    volIntegrate(cz_solid_1) of U = (4.56783e-10 -3.91786e-09 -2.73334e-09)

surfaceFieldValue massFlowAtFilter_1 write:
    sum(fz_solid_1) of phi = 5.18143e-05

volFieldValue volFieldValue_2 write:
    volIntegrate(cz_solid_2) of U = (-2.91726e-10 -3.80304e-09 -2.16741e-09)

surfaceFieldValue massFlowAtFilter_2 write:
    sum(fz_solid_2) of phi = 8.37926e-06

volFieldValue volFieldValue_3 write:
    volIntegrate(cz_solid_3) of U = (-8.71622e-10 -3.72169e-09 -1.57179e-09)

surfaceFieldValue massFlowAtFilter_3 write:
    sum(fz_solid_3) of phi = 7.67871e-06

volFieldValue volFieldValue_4 write:
    volIntegrate(cz_solid_4) of U = (-1.41262e-09 -3.68295e-09 -9.73971e-10)

surfaceFieldValue massFlowAtFilter_4 write:
    sum(fz_solid_4) of phi = -4.07465e-05

volFieldValue volFieldValue_5 write:
    volIntegrate(cz_solid_5) of U = (-1.93788e-09 -3.63049e-09 -3.89791e-10)

surfaceFieldValue massFlowAtFilter_5 write:
    sum(fz_solid_5) of phi = -9.8929e-06

volFieldValue volFieldValue_6 write:
    volIntegrate(cz_solid_6) of U = (-2.4717e-09 -3.64957e-09 2.53253e-10)

surfaceFieldValue massFlowAtFilter_6 write:
    sum(fz_solid_6) of phi = 5.23242e-05

volFieldValue volFieldValue_7 write:
    volIntegrate(cz_solid_7) of U = (-2.8526e-09 -3.80395e-09 1.21353e-09)

surfaceFieldValue massFlowAtFilter_7 write:
    sum(fz_solid_7) of phi = -4.8714e-05

volFieldValue volFieldValue_8 write:
    volIntegrate(cz_solid_8) of U = (-2.84617e-09 -4.00226e-09 2.43975e-09)

surfaceFieldValue massFlowAtFilter_8 write:
    sum(fz_solid_8) of phi = -8.47242e-05

volFieldValue volFieldValue_9 write:
    volIntegrate(cz_solid_9) of U = (-2.35379e-09 -4.22855e-09 3.72288e-09)

surfaceFieldValue massFlowAtFilter_9 write:
    sum(fz_solid_9) of phi = -0.000105807

volFieldValue volFieldValue_10 write:
    volIntegrate(cz_solid_10) of U = (-1.29425e-09 -4.4359e-09 4.77485e-09)

surfaceFieldValue massFlowAtFilter_10 write:
    sum(fz_solid_10) of phi = -1.67807e-05

volFieldValue volFieldValue_11 write:
    volIntegrate(cz_solid_11) of U = (1.68734e-10 -4.71911e-09 5.56478e-09)

surfaceFieldValue massFlowAtFilter_11 write:
    sum(fz_solid_11) of phi = -7.41592e-05

volFieldValue volFieldValue_12 write:
    volIntegrate(cz_solid_12) of U = (2.04832e-09 -5.26615e-09 5.96861e-09)

surfaceFieldValue massFlowAtFilter_12 write:
    sum(fz_solid_12) of phi = -1.9051e-05

volFieldValue volFieldValue_13 write:
    volIntegrate(cz_solid_13) of U = (4.2358e-09 -5.77351e-09 5.46065e-09)

surfaceFieldValue massFlowAtFilter_13 write:
    sum(fz_solid_13) of phi = 0.000108612

volFieldValue volFieldValue_14 write:
    volIntegrate(cz_solid_14) of U = (5.98778e-09 -6.23781e-09 4.16598e-09)

surfaceFieldValue massFlowAtFilter_14 write:
    sum(fz_solid_14) of phi = -9.74259e-05

volFieldValue volFieldValue_15 write:
    volIntegrate(cz_solid_15) of U = (6.98283e-09 -6.46418e-09 2.21379e-09)

surfaceFieldValue massFlowAtFilter_15 write:
    sum(fz_solid_15) of phi = 3.50864e-05

volFieldValue volFieldValue_16 write:
    volIntegrate(cz_solid_16) of U = (6.87031e-09 -6.401e-09 3.90001e-12)

surfaceFieldValue massFlowAtFilter_16 write:
    sum(fz_solid_16) of phi = 3.57395e-05

volFieldValue volFieldValue_17 write:
    volIntegrate(cz_solid_17) of U = (5.9091e-09 -6.11817e-09 -1.78005e-09)

surfaceFieldValue massFlowAtFilter_17 write:
    sum(fz_solid_17) of phi = 9.15542e-05

volFieldValue volFieldValue_18 write:
    volIntegrate(cz_solid_18) of U = (4.52935e-09 -5.52403e-09 -2.93121e-09)

surfaceFieldValue massFlowAtFilter_18 write:
    sum(fz_solid_18) of phi = 3.09937e-05

volFieldValue volFieldValue_19 write:
    volIntegrate(cz_solid_19) of U = (2.89542e-09 -4.84082e-09 -3.34392e-09)

surfaceFieldValue massFlowAtFilter_19 write:
    sum(fz_solid_19) of phi = -2.72227e-06

volFieldValue volFieldValue_20 write:
    volIntegrate(cz_solid_20) of U = (1.28089e-09 -8.9216e-09 -2.32163e-09)

surfaceFieldValue massFlowAtFilter_20 write:
    sum(fz_solid_20) of phi = -2.69617e-06

volFieldValue volFieldValue_21 write:
    volIntegrate(cz_solid_21) of U = (4.16527e-10 -8.26354e-09 -2e-09)

surfaceFieldValue massFlowAtFilter_21 write:
    sum(fz_solid_21) of phi = 1.90012e-05

volFieldValue volFieldValue_22 write:
    volIntegrate(cz_solid_22) of U = (-1.72905e-10 -7.93616e-09 -1.56726e-09)

surfaceFieldValue massFlowAtFilter_22 write:
    sum(fz_solid_22) of phi = 6.93213e-06

volFieldValue volFieldValue_23 write:
    volIntegrate(cz_solid_23) of U = (-6.24267e-10 -7.69162e-09 -1.09406e-09)

surfaceFieldValue massFlowAtFilter_23 write:
    sum(fz_solid_23) of phi = 1.1662e-05

volFieldValue volFieldValue_24 write:
    volIntegrate(cz_solid_24) of U = (-1.03455e-09 -7.62199e-09 -6.35188e-10)

surfaceFieldValue massFlowAtFilter_24 write:
    sum(fz_solid_24) of phi = -7.85734e-06

volFieldValue volFieldValue_25 write:
    volIntegrate(cz_solid_25) of U = (-1.44444e-09 -7.49509e-09 -1.92993e-10)

surfaceFieldValue massFlowAtFilter_25 write:
    sum(fz_solid_25) of phi = 1.20905e-05

volFieldValue volFieldValue_26 write:
    volIntegrate(cz_solid_26) of U = (-1.84553e-09 -7.59223e-09 2.79354e-10)

surfaceFieldValue massFlowAtFilter_26 write:
    sum(fz_solid_26) of phi = 4.84445e-05

volFieldValue volFieldValue_27 write:
    volIntegrate(cz_solid_27) of U = (-2.10486e-09 -7.72577e-09 1.03196e-09)

surfaceFieldValue massFlowAtFilter_27 write:
    sum(fz_solid_27) of phi = -2.24803e-05

volFieldValue volFieldValue_28 write:
    volIntegrate(cz_solid_28) of U = (-2.04735e-09 -8.06118e-09 1.97132e-09)

surfaceFieldValue massFlowAtFilter_28 write:
    sum(fz_solid_28) of phi = -3.04729e-05

volFieldValue volFieldValue_29 write:
    volIntegrate(cz_solid_29) of U = (-1.63017e-09 -8.65422e-09 2.93291e-09)

surfaceFieldValue massFlowAtFilter_29 write:
    sum(fz_solid_29) of phi = -3.83777e-05

volFieldValue volFieldValue_30 write:
    volIntegrate(cz_solid_30) of U = (-7.6256e-10 -9.4101e-09 3.70842e-09)

surfaceFieldValue massFlowAtFilter_30 write:
    sum(fz_solid_30) of phi = 8.84916e-06

volFieldValue volFieldValue_31 write:
    volIntegrate(cz_solid_31) of U = (3.96025e-10 -1.04876e-08 4.24428e-09)

surfaceFieldValue massFlowAtFilter_31 write:
    sum(fz_solid_31) of phi = -3.82575e-05

volFieldValue volFieldValue_32 write:
    volIntegrate(cz_solid_32) of U = (1.81665e-09 -1.21024e-08 4.5006e-09)

surfaceFieldValue massFlowAtFilter_32 write:
    sum(fz_solid_32) of phi = 2.27061e-06

volFieldValue volFieldValue_33 write:
    volIntegrate(cz_solid_33) of U = (3.44874e-09 -1.33557e-08 4.13208e-09)

surfaceFieldValue massFlowAtFilter_33 write:
    sum(fz_solid_33) of phi = 5.17514e-05

volFieldValue volFieldValue_34 write:
    volIntegrate(cz_solid_34) of U = (4.76207e-09 -1.41996e-08 3.28607e-09)

surfaceFieldValue massFlowAtFilter_34 write:
    sum(fz_solid_34) of phi = -5.23767e-05

volFieldValue volFieldValue_35 write:
    volIntegrate(cz_solid_35) of U = (5.60076e-09 -1.49058e-08 1.96737e-09)

surfaceFieldValue massFlowAtFilter_35 write:
    sum(fz_solid_35) of phi = 2.63548e-05

volFieldValue volFieldValue_36 write:
    volIntegrate(cz_solid_36) of U = (5.60792e-09 -1.4162e-08 3.67486e-10)

surfaceFieldValue massFlowAtFilter_36 write:
    sum(fz_solid_36) of phi = 2.09292e-05

volFieldValue volFieldValue_37 write:
    volIntegrate(cz_solid_37) of U = (4.90647e-09 -1.29928e-08 -1.05941e-09)

surfaceFieldValue massFlowAtFilter_37 write:
    sum(fz_solid_37) of phi = 3.75763e-05

volFieldValue volFieldValue_38 write:
    volIntegrate(cz_solid_38) of U = (3.78941e-09 -1.1328e-08 -2.04314e-09)

surfaceFieldValue massFlowAtFilter_38 write:
    sum(fz_solid_38) of phi = 3.23589e-05

volFieldValue volFieldValue_39 write:
    volIntegrate(cz_solid_39) of U = (2.42565e-09 -9.88824e-09 -2.41809e-09)

surfaceFieldValue massFlowAtFilter_39 write:
    sum(fz_solid_39) of phi = 1.65349e-05

volFieldValue volFieldValue_40 write:
    volIntegrate(cz_solid_40) of U = (7.50043e-10 -8.5884e-09 -8.49698e-10)

surfaceFieldValue massFlowAtFilter_40 write:
    sum(fz_solid_40) of phi = 6.15183e-06

volFieldValue volFieldValue_41 write:
    volIntegrate(cz_solid_41) of U = (3.03859e-10 -7.90502e-09 -7.49151e-10)

surfaceFieldValue massFlowAtFilter_41 write:
    sum(fz_solid_41) of phi = 7.06839e-06

volFieldValue volFieldValue_42 write:
    volIntegrate(cz_solid_42) of U = (2.53313e-12 -7.57351e-09 -5.47617e-10)

surfaceFieldValue massFlowAtFilter_42 write:
    sum(fz_solid_42) of phi = 6.11081e-06

volFieldValue volFieldValue_43 write:
    volIntegrate(cz_solid_43) of U = (-2.41532e-10 -7.32275e-09 -3.05697e-10)

surfaceFieldValue massFlowAtFilter_43 write:
    sum(fz_solid_43) of phi = 9.75693e-06

volFieldValue volFieldValue_44 write:
    volIntegrate(cz_solid_44) of U = (-4.79224e-10 -7.3233e-09 -9.96432e-11)

surfaceFieldValue massFlowAtFilter_44 write:
    sum(fz_solid_44) of phi = 7.39097e-06

volFieldValue volFieldValue_45 write:
    volIntegrate(cz_solid_45) of U = (-7.47805e-10 -7.19304e-09 1.17322e-10)

surfaceFieldValue massFlowAtFilter_45 write:
    sum(fz_solid_45) of phi = 1.78795e-05

volFieldValue volFieldValue_46 write:
    volIntegrate(cz_solid_46) of U = (-1.00927e-09 -7.16713e-09 3.52412e-10)

surfaceFieldValue massFlowAtFilter_46 write:
    sum(fz_solid_46) of phi = 2.42023e-05

volFieldValue volFieldValue_47 write:
    volIntegrate(cz_solid_47) of U = (-1.15403e-09 -7.2966e-09 8.20042e-10)

surfaceFieldValue massFlowAtFilter_47 write:
    sum(fz_solid_47) of phi = 4.5783e-06

volFieldValue volFieldValue_48 write:
    volIntegrate(cz_solid_48) of U = (-1.07192e-09 -7.44487e-09 1.42646e-09)

surfaceFieldValue massFlowAtFilter_48 write:
    sum(fz_solid_48) of phi = -1.38527e-05

volFieldValue volFieldValue_49 write:
    volIntegrate(cz_solid_49) of U = (-7.45469e-10 -7.74951e-09 2.02595e-09)

surfaceFieldValue massFlowAtFilter_49 write:
    sum(fz_solid_49) of phi = -1.26984e-05

volFieldValue volFieldValue_50 write:
    volIntegrate(cz_solid_50) of U = (-1.06872e-10 -8.30046e-09 2.52527e-09)

surfaceFieldValue massFlowAtFilter_50 write:
    sum(fz_solid_50) of phi = 1.38859e-05

volFieldValue volFieldValue_51 write:
    volIntegrate(cz_solid_51) of U = (7.42195e-10 -9.18957e-09 2.85203e-09)

surfaceFieldValue massFlowAtFilter_51 write:
    sum(fz_solid_51) of phi = -1.97289e-05

volFieldValue volFieldValue_52 write:
    volIntegrate(cz_solid_52) of U = (1.78043e-09 -1.08392e-08 3.00918e-09)

surfaceFieldValue massFlowAtFilter_52 write:
    sum(fz_solid_52) of phi = 1.59478e-05

volFieldValue volFieldValue_53 write:
    volIntegrate(cz_solid_53) of U = (3.03764e-09 -1.29206e-08 2.8517e-09)

surfaceFieldValue massFlowAtFilter_53 write:
    sum(fz_solid_53) of phi = 4.96822e-05

volFieldValue volFieldValue_54 write:
    volIntegrate(cz_solid_54) of U = (4.16266e-09 -1.50929e-08 2.5335e-09)

surfaceFieldValue massFlowAtFilter_54 write:
    sum(fz_solid_54) of phi = -2.1587e-05

volFieldValue volFieldValue_55 write:
    volIntegrate(cz_solid_55) of U = (4.97198e-09 -1.76609e-08 1.98173e-09)

surfaceFieldValue massFlowAtFilter_55 write:
    sum(fz_solid_55) of phi = 4.18549e-05

volFieldValue volFieldValue_56 write:
    volIntegrate(cz_solid_56) of U = (4.67206e-09 -1.75409e-08 1.36762e-09)

surfaceFieldValue massFlowAtFilter_56 write:
    sum(fz_solid_56) of phi = 4.67552e-05

volFieldValue volFieldValue_57 write:
    volIntegrate(cz_solid_57) of U = (3.44013e-09 -1.47485e-08 5.41182e-10)

surfaceFieldValue massFlowAtFilter_57 write:
    sum(fz_solid_57) of phi = 6.36324e-05

volFieldValue volFieldValue_58 write:
    volIntegrate(cz_solid_58) of U = (2.2729e-09 -1.15044e-08 -4.76821e-10)

surfaceFieldValue massFlowAtFilter_58 write:
    sum(fz_solid_58) of phi = 1.82167e-05

volFieldValue volFieldValue_59 write:
    volIntegrate(cz_solid_59) of U = (1.39592e-09 -9.68012e-09 -8.17911e-10)

surfaceFieldValue massFlowAtFilter_59 write:
    sum(fz_solid_59) of phi = 1.24137e-05

volFieldValue volFieldValue_60 write:
    volIntegrate(cz_solid_60) of U = (-1.02599e-10 -6.55863e-09 5.81832e-10)

surfaceFieldValue massFlowAtFilter_60 write:
    sum(fz_solid_60) of phi = -2.53132e-05

volFieldValue volFieldValue_61 write:
    volIntegrate(cz_solid_61) of U = (2.52677e-11 -5.79913e-09 3.87087e-10)

surfaceFieldValue massFlowAtFilter_61 write:
    sum(fz_solid_61) of phi = -1.38574e-05

volFieldValue volFieldValue_62 write:
    volIntegrate(cz_solid_62) of U = (2.37137e-11 -5.36571e-09 3.16924e-10)

surfaceFieldValue massFlowAtFilter_62 write:
    sum(fz_solid_62) of phi = -2.05628e-05

volFieldValue volFieldValue_63 write:
    volIntegrate(cz_solid_63) of U = (-6.01127e-11 -5.07101e-09 3.07502e-10)

surfaceFieldValue massFlowAtFilter_63 write:
    sum(fz_solid_63) of phi = -2.02523e-05

volFieldValue volFieldValue_64 write:
    volIntegrate(cz_solid_64) of U = (-1.97804e-10 -5.0099e-09 2.84487e-10)

surfaceFieldValue massFlowAtFilter_64 write:
    sum(fz_solid_64) of phi = -1.46164e-05

volFieldValue volFieldValue_65 write:
    volIntegrate(cz_solid_65) of U = (-3.82417e-10 -4.90209e-09 3.33302e-10)

surfaceFieldValue massFlowAtFilter_65 write:
    sum(fz_solid_65) of phi = -1.44983e-05

volFieldValue volFieldValue_66 write:
    volIntegrate(cz_solid_66) of U = (-5.54156e-10 -4.91782e-09 4.30146e-10)

surfaceFieldValue massFlowAtFilter_66 write:
    sum(fz_solid_66) of phi = -1.13693e-05

volFieldValue volFieldValue_67 write:
    volIntegrate(cz_solid_67) of U = (-6.31284e-10 -4.97292e-09 7.40332e-10)

surfaceFieldValue massFlowAtFilter_67 write:
    sum(fz_solid_67) of phi = -1.15679e-05

volFieldValue volFieldValue_68 write:
    volIntegrate(cz_solid_68) of U = (-5.23635e-10 -5.11637e-09 1.18987e-09)

surfaceFieldValue massFlowAtFilter_68 write:
    sum(fz_solid_68) of phi = -2.70706e-05

volFieldValue volFieldValue_69 write:
    volIntegrate(cz_solid_69) of U = (-2.31978e-10 -5.42199e-09 1.63996e-09)

surfaceFieldValue massFlowAtFilter_69 write:
    sum(fz_solid_69) of phi = -3.36869e-05

volFieldValue volFieldValue_70 write:
    volIntegrate(cz_solid_70) of U = (3.24495e-10 -5.9385e-09 2.06224e-09)

surfaceFieldValue massFlowAtFilter_70 write:
    sum(fz_solid_70) of phi = -1.80363e-05

volFieldValue volFieldValue_71 write:
    volIntegrate(cz_solid_71) of U = (1.13206e-09 -6.80273e-09 2.37278e-09)

surfaceFieldValue massFlowAtFilter_71 write:
    sum(fz_solid_71) of phi = -3.60607e-05

volFieldValue volFieldValue_72 write:
    volIntegrate(cz_solid_72) of U = (2.24898e-09 -8.55254e-09 2.56814e-09)

surfaceFieldValue massFlowAtFilter_72 write:
    sum(fz_solid_72) of phi = -2.12287e-05

volFieldValue volFieldValue_73 write:
    volIntegrate(cz_solid_73) of U = (3.90969e-09 -1.13108e-08 2.54858e-09)

surfaceFieldValue massFlowAtFilter_73 write:
    sum(fz_solid_73) of phi = -1.20954e-05

volFieldValue volFieldValue_74 write:
    volIntegrate(cz_solid_74) of U = (6.05962e-09 -1.54716e-08 2.40146e-09)

surfaceFieldValue massFlowAtFilter_74 write:
    sum(fz_solid_74) of phi = -3.00798e-05

volFieldValue volFieldValue_75 write:
    volIntegrate(cz_solid_75) of U = (8.83166e-09 -2.34515e-08 1.73268e-09)

surfaceFieldValue massFlowAtFilter_75 write:
    sum(fz_solid_75) of phi = -5.13471e-05

volFieldValue volFieldValue_76 write:
    volIntegrate(cz_solid_76) of U = (1.00235e-08 -3.54126e-08 9.91647e-10)

surfaceFieldValue massFlowAtFilter_76 write:
    sum(fz_solid_76) of phi = -8.1111e-05

volFieldValue volFieldValue_77 write:
    volIntegrate(cz_solid_77) of U = (3.7439e-09 -3.23023e-08 8.19046e-09)

surfaceFieldValue massFlowAtFilter_77 write:
    sum(fz_solid_77) of phi = 6.63468e-05

volFieldValue volFieldValue_78 write:
    volIntegrate(cz_solid_78) of U = (-2.57653e-09 -1.09426e-08 1.25653e-09)

surfaceFieldValue massFlowAtFilter_78 write:
    sum(fz_solid_78) of phi = -0.000145539

volFieldValue volFieldValue_79 write:
    volIntegrate(cz_solid_79) of U = (-5.75927e-10 -7.51184e-09 8.49708e-10)

surfaceFieldValue massFlowAtFilter_79 write:
    sum(fz_solid_79) of phi = -2.39225e-05

volFieldValue volFieldValue_80 write:
    volIntegrate(cz_solid_80) of U = (-7.50063e-10 -3.4465e-09 1.42233e-09)

surfaceFieldValue massFlowAtFilter_80 write:
    sum(fz_solid_80) of phi = -2.16154e-05

volFieldValue volFieldValue_81 write:
    volIntegrate(cz_solid_81) of U = (-2.30425e-10 -2.85877e-09 1.03837e-09)

surfaceFieldValue massFlowAtFilter_81 write:
    sum(fz_solid_81) of phi = -1.51318e-05

volFieldValue volFieldValue_82 write:
    volIntegrate(cz_solid_82) of U = (-4.7599e-11 -2.47644e-09 7.7499e-10)

surfaceFieldValue massFlowAtFilter_82 write:
    sum(fz_solid_82) of phi = 5.01518e-06

volFieldValue volFieldValue_83 write:
    volIntegrate(cz_solid_83) of U = (-3.29895e-11 -2.22157e-09 6.01529e-10)

surfaceFieldValue massFlowAtFilter_83 write:
    sum(fz_solid_83) of phi = 1.28533e-05

volFieldValue volFieldValue_84 write:
    volIntegrate(cz_solid_84) of U = (-1.22812e-10 -2.1289e-09 4.66779e-10)

surfaceFieldValue massFlowAtFilter_84 write:
    sum(fz_solid_84) of phi = 2.15246e-06

volFieldValue volFieldValue_85 write:
    volIntegrate(cz_solid_85) of U = (-2.54146e-10 -2.03324e-09 4.49855e-10)

surfaceFieldValue massFlowAtFilter_85 write:
    sum(fz_solid_85) of phi = -9.24408e-06

volFieldValue volFieldValue_86 write:
    volIntegrate(cz_solid_86) of U = (-3.51627e-10 -2.00709e-09 5.10833e-10)

surfaceFieldValue massFlowAtFilter_86 write:
    sum(fz_solid_86) of phi = 6.35687e-06

volFieldValue volFieldValue_87 write:
    volIntegrate(cz_solid_87) of U = (-3.60427e-10 -2.02891e-09 7.48782e-10)

surfaceFieldValue massFlowAtFilter_87 write:
    sum(fz_solid_87) of phi = -3.59892e-06

volFieldValue volFieldValue_88 write:
    volIntegrate(cz_solid_88) of U = (-2.21587e-10 -2.09332e-09 1.11856e-09)

surfaceFieldValue massFlowAtFilter_88 write:
    sum(fz_solid_88) of phi = -9.49779e-06

volFieldValue volFieldValue_89 write:
    volIntegrate(cz_solid_89) of U = (7.47585e-11 -2.20525e-09 1.49234e-09)

surfaceFieldValue massFlowAtFilter_89 write:
    sum(fz_solid_89) of phi = -1.12648e-05

volFieldValue volFieldValue_90 write:
    volIntegrate(cz_solid_90) of U = (6.09434e-10 -2.5079e-09 1.88077e-09)

surfaceFieldValue massFlowAtFilter_90 write:
    sum(fz_solid_90) of phi = 4.17309e-05

volFieldValue volFieldValue_91 write:
    volIntegrate(cz_solid_91) of U = (1.47126e-09 -2.93191e-09 2.18244e-09)

surfaceFieldValue massFlowAtFilter_91 write:
    sum(fz_solid_91) of phi = -6.94408e-06

volFieldValue volFieldValue_92 write:
    volIntegrate(cz_solid_92) of U = (2.79542e-09 -3.78392e-09 2.32754e-09)

surfaceFieldValue massFlowAtFilter_92 write:
    sum(fz_solid_92) of phi = 1.88532e-05

volFieldValue volFieldValue_93 write:
    volIntegrate(cz_solid_93) of U = (4.96047e-09 -5.04543e-09 2.20992e-09)

surfaceFieldValue massFlowAtFilter_93 write:
    sum(fz_solid_93) of phi = 0.000121825

volFieldValue volFieldValue_94 write:
    volIntegrate(cz_solid_94) of U = (8.26086e-09 -7.04401e-09 1.8406e-09)

surfaceFieldValue massFlowAtFilter_94 write:
    sum(fz_solid_94) of phi = 0.000182159

volFieldValue volFieldValue_95 write:
[...]
    sum(fz_solid_64) of phi = -0.000308825

volFieldValue volFieldValue_65 write:
    volIntegrate(cz_solid_65) of U = (3.11895e-09 -1.25158e-07 8.34625e-09)

surfaceFieldValue massFlowAtFilter_65 write:
    sum(fz_solid_65) of phi = 0.00048087

volFieldValue volFieldValue_66 write:
    volIntegrate(cz_solid_66) of U = (4.46435e-09 -1.48877e-07 6.0925e-09)

surfaceFieldValue massFlowAtFilter_66 write:
    sum(fz_solid_66) of phi = -0.000492578

volFieldValue volFieldValue_67 write:
    volIntegrate(cz_solid_67) of U = (3.06909e-09 -1.66437e-07 4.88145e-09)

surfaceFieldValue massFlowAtFilter_67 write:
    sum(fz_solid_67) of phi = -0.000450936

volFieldValue volFieldValue_68 write:
    volIntegrate(cz_solid_68) of U = (5.10892e-09 -1.9892e-07 4.15936e-09)

surfaceFieldValue massFlowAtFilter_68 write:
    sum(fz_solid_68) of phi = -0.000784276

volFieldValue volFieldValue_69 write:
    volIntegrate(cz_solid_69) of U = (4.90894e-09 -1.87346e-07 2.63462e-10)

surfaceFieldValue massFlowAtFilter_69 write:
    sum(fz_solid_69) of phi = -0.000295172

volFieldValue volFieldValue_70 write:
    volIntegrate(cz_solid_70) of U = (2.08546e-09 -1.59361e-07 -1.72819e-09)

surfaceFieldValue massFlowAtFilter_70 write:
    sum(fz_solid_70) of phi = -1.32442e-05

volFieldValue volFieldValue_71 write:
    volIntegrate(cz_solid_71) of U = (1.0746e-09 -1.66039e-07 -1.62254e-09)

surfaceFieldValue massFlowAtFilter_71 write:
    sum(fz_solid_71) of phi = -1.47482e-05

volFieldValue volFieldValue_72 write:
    volIntegrate(cz_solid_72) of U = (-2.34972e-10 -1.3808e-07 -1.57227e-09)

surfaceFieldValue massFlowAtFilter_72 write:
    sum(fz_solid_72) of phi = -8.23491e-05

volFieldValue volFieldValue_73 write:
    volIntegrate(cz_solid_73) of U = (-1.08906e-09 -5.25333e-08 -1.51155e-09)

surfaceFieldValue massFlowAtFilter_73 write:
    sum(fz_solid_73) of phi = -9.66111e-05

volFieldValue volFieldValue_74 write:
    volIntegrate(cz_solid_74) of U = (-1.34126e-09 2.25988e-08 -1.12073e-09)

surfaceFieldValue massFlowAtFilter_74 write:
    sum(fz_solid_74) of phi = 8.3975e-05

volFieldValue volFieldValue_75 write:
    volIntegrate(cz_solid_75) of U = (-1.4219e-09 6.91606e-08 -7.45291e-10)

surfaceFieldValue massFlowAtFilter_75 write:
    sum(fz_solid_75) of phi = -6.48381e-05

volFieldValue volFieldValue_76 write:
    volIntegrate(cz_solid_76) of U = (-1.15722e-09 3.3873e-08 -6.03442e-10)

surfaceFieldValue massFlowAtFilter_76 write:
    sum(fz_solid_76) of phi = 2.83372e-05

volFieldValue volFieldValue_77 write:
    volIntegrate(cz_solid_77) of U = (-9.01602e-10 4.34398e-08 -1.75084e-10)

surfaceFieldValue massFlowAtFilter_77 write:
    sum(fz_solid_77) of phi = -1.84604e-05

volFieldValue volFieldValue_78 write:
    volIntegrate(cz_solid_78) of U = (-6.76338e-10 6.01612e-08 1.32509e-10)

surfaceFieldValue massFlowAtFilter_78 write:
    sum(fz_solid_78) of phi = 6.39954e-06

volFieldValue volFieldValue_79 write:
    volIntegrate(cz_solid_79) of U = (-4.72594e-10 3.08577e-08 2.4983e-10)

surfaceFieldValue massFlowAtFilter_79 write:
    sum(fz_solid_79) of phi = -6.10346e-05

volFieldValue volFieldValue_80 write:
    volIntegrate(cz_solid_80) of U = (-4.52068e-10 -6.8524e-09 2.71193e-10)

surfaceFieldValue massFlowAtFilter_80 write:
    sum(fz_solid_80) of phi = -7.87623e-06

volFieldValue volFieldValue_81 write:
    volIntegrate(cz_solid_81) of U = (-5.14872e-10 -2.36957e-08 3.46926e-10)

surfaceFieldValue massFlowAtFilter_81 write:
    sum(fz_solid_81) of phi = -0.000182406

volFieldValue volFieldValue_82 write:
    volIntegrate(cz_solid_82) of U = (-1.20998e-09 -3.31835e-08 6.32134e-10)

surfaceFieldValue massFlowAtFilter_82 write:
    sum(fz_solid_82) of phi = 0.000223187

volFieldValue volFieldValue_83 write:
    volIntegrate(cz_solid_83) of U = (-2.35423e-09 -3.70332e-08 3.05128e-09)

surfaceFieldValue massFlowAtFilter_83 write:
    sum(fz_solid_83) of phi = 0.000133971

volFieldValue volFieldValue_84 write:
    volIntegrate(cz_solid_84) of U = (-1.16258e-09 -4.98342e-08 8.75823e-09)

surfaceFieldValue massFlowAtFilter_84 write:
    sum(fz_solid_84) of phi = 0.000197304

volFieldValue volFieldValue_85 write:
    volIntegrate(cz_solid_85) of U = (3.55032e-09 -5.12211e-08 1.06969e-08)

surfaceFieldValue massFlowAtFilter_85 write:
    sum(fz_solid_85) of phi = 0.000972201

volFieldValue volFieldValue_86 write:
    volIntegrate(cz_solid_86) of U = (6.19249e-09 -3.40355e-08 8.10349e-09)

surfaceFieldValue massFlowAtFilter_86 write:
    sum(fz_solid_86) of phi = -0.000216699

volFieldValue volFieldValue_87 write:
    volIntegrate(cz_solid_87) of U = (5.53983e-09 -1.07778e-08 6.40435e-09)

surfaceFieldValue massFlowAtFilter_87 write:
    sum(fz_solid_87) of phi = -0.000334963

volFieldValue volFieldValue_88 write:
    volIntegrate(cz_solid_88) of U = (8.75564e-09 -2.53101e-08 5.27191e-09)

surfaceFieldValue massFlowAtFilter_88 write:
    sum(fz_solid_88) of phi = -0.00114561

volFieldValue volFieldValue_89 write:
    volIntegrate(cz_solid_89) of U = (1.0392e-08 -4.66907e-08 -1.45719e-10)

surfaceFieldValue massFlowAtFilter_89 write:
    sum(fz_solid_89) of phi = -0.000725884

volFieldValue volFieldValue_90 write:
    volIntegrate(cz_solid_90) of U = (4.78789e-09 -3.87926e-08 -4.07734e-09)

surfaceFieldValue massFlowAtFilter_90 write:
    sum(fz_solid_90) of phi = -0.000210649

volFieldValue volFieldValue_91 write:
    volIntegrate(cz_solid_91) of U = (2.00487e-09 -7.69217e-08 -1.14038e-09)

surfaceFieldValue massFlowAtFilter_91 write:
    sum(fz_solid_91) of phi = -0.000427617

volFieldValue volFieldValue_92 write:
    volIntegrate(cz_solid_92) of U = (1.3099e-09 -9.77855e-08 -2.4616e-09)

surfaceFieldValue massFlowAtFilter_92 write:
    sum(fz_solid_92) of phi = -0.000276911

volFieldValue volFieldValue_93 write:
    volIntegrate(cz_solid_93) of U = (-3.49026e-10 -1.04005e-07 -4.08223e-09)

surfaceFieldValue massFlowAtFilter_93 write:
    sum(fz_solid_93) of phi = 0.000178875

volFieldValue volFieldValue_94 write:
    volIntegrate(cz_solid_94) of U = (-2.84121e-09 -6.00309e-08 -3.24945e-09)

surfaceFieldValue massFlowAtFilter_94 write:
    sum(fz_solid_94) of phi = 6.48212e-06

volFieldValue volFieldValue_95 write:
    volIntegrate(cz_solid_95) of U = (-3.3488e-09 9.93461e-09 -1.23521e-09)

surfaceFieldValue massFlowAtFilter_95 write:
    sum(fz_solid_95) of phi = -0.000692022

volFieldValue volFieldValue_96 write:
    volIntegrate(cz_solid_96) of U = (-1.67542e-09 4.99134e-08 -1.12396e-09)

surfaceFieldValue massFlowAtFilter_96 write:
    sum(fz_solid_96) of phi = -7.55657e-05

volFieldValue volFieldValue_97 write:
    volIntegrate(cz_solid_97) of U = (-1.01671e-09 6.22654e-08 -1.48443e-10)

surfaceFieldValue massFlowAtFilter_97 write:
    sum(fz_solid_97) of phi = -7.30062e-05

volFieldValue volFieldValue_98 write:
    volIntegrate(cz_solid_98) of U = (-7.73908e-10 4.15439e-08 2.00282e-10)

surfaceFieldValue massFlowAtFilter_98 write:
    sum(fz_solid_98) of phi = 0.000109555

volFieldValue volFieldValue_99 write:
    volIntegrate(cz_solid_99) of U = (-5.27684e-10 1.80601e-08 2.39669e-10)

surfaceFieldValue massFlowAtFilter_99 write:
    sum(fz_solid_99) of phi = -5.7344e-05

Time = 781

DILUPBiCG:  Solving for Ux, Initial residual = 3.10807e-07, Final residual = 3.10807e-07, No Iterations 0
DILUPBiCG:  Solving for Uy, Initial residual = 1.31848e-07, Final residual = 1.31848e-07, No Iterations 0
DILUPBiCG:  Solving for Uz, Initial residual = 1.96359e-07, Final residual = 1.96359e-07, No Iterations 0
DICPCG:  Solving for p, Initial residual = 0.00102176, Final residual = 0.00010109, No Iterations 27
DICPCG:  Solving for p, Initial residual = 0.000230415, Final residual = 2.18594e-05, No Iterations 69
DICPCG:  Solving for p, Initial residual = 5.34734e-05, Final residual = 9.944e-06, No Iterations 32
time step continuity errors : sum local = 7.80089e-05, global = -2.90434e-06, cumulative = -7.30212e-06
DILUPBiCG:  Solving for epsilon, Initial residual = 0.000694429, Final residual = 6.45892e-07, No Iterations 3
bounding epsilon, min: -0.559113 max: 11630.4 average: 38.8892
DILUPBiCG:  Solving for k, Initial residual = 0.000894036, Final residual = 6.21484e-07, No Iterations 3
ExecutionTime = 1837.91 s  ClockTime = 1898 s

Time = 782

DILUPBiCG:  Solving for Ux, Initial residual = 3.11636e-07, Final residual = 3.11636e-07, No Iterations 0
DILUPBiCG:  Solving for Uy, Initial residual = 1.32006e-07, Final residual = 1.32006e-07, No Iterations 0
DILUPBiCG:  Solving for Uz, Initial residual = 1.96924e-07, Final residual = 1.96924e-07, No Iterations 0
DICPCG:  Solving for p, Initial residual = 0.00101993, Final residual = 0.000101148, No Iterations 27
DICPCG:  Solving for p, Initial residual = 0.000230248, Final residual = 2.20906e-05, No Iterations 69
DICPCG:  Solving for p, Initial residual = 5.35894e-05, Final residual = 9.87104e-06, No Iterations 33
time step continuity errors : sum local = 7.7467e-05, global = -2.80463e-06, cumulative = -1.01067e-05
DILUPBiCG:  Solving for epsilon, Initial residual = 0.00067819, Final residual = 7.67023e-06, No Iterations 2
bounding epsilon, min: -0.0966896 max: 11630.4 average: 38.8738
DILUPBiCG:  Solving for k, Initial residual = 0.000894617, Final residual = 6.21e-07, No Iterations 3
ExecutionTime = 1840.07 s  ClockTime = 1900 s

Time = 783

DILUPBiCG:  Solving for Ux, Initial residual = 3.12466e-07, Final residual = 3.12466e-07, No Iterations 0
DILUPBiCG:  Solving for Uy, Initial residual = 1.32164e-07, Final residual = 1.32164e-07, No Iterations 0
DILUPBiCG:  Solving for Uz, Initial residual = 1.97498e-07, Final residual = 1.97498e-07, No Iterations 0
DICPCG:  Solving for p, Initial residual = 0.00101272, Final residual = 0.000100365, No Iterations 27
DICPCG:  Solving for p, Initial residual = 0.000229018, Final residual = 2.24453e-05, No Iterations 69
DICPCG:  Solving for p, Initial residual = 5.37886e-05, Final residual = 9.95735e-06, No Iterations 33
time step continuity errors : sum local = 7.81763e-05, global = -3.15393e-06, cumulative = -1.32607e-05
DILUPBiCG:  Solving for epsilon, Initial residual = 0.000689932, Final residual = 6.22942e-07, No Iterations 3
bounding epsilon, min: -0.0384947 max: 11630.4 average: 38.8588
DILUPBiCG:  Solving for k, Initial residual = 0.000895412, Final residual = 6.20643e-07, No Iterations 3
ExecutionTime = 1842.25 s  ClockTime = 1902 s

Time = 784

DILUPBiCG:  Solving for Ux, Initial residual = 3.13288e-07, Final residual = 3.13288e-07, No Iterations 0
DILUPBiCG:  Solving for Uy, Initial residual = 1.32324e-07, Final residual = 1.32324e-07, No Iterations 0
DILUPBiCG:  Solving for Uz, Initial residual = 1.98085e-07, Final residual = 1.98085e-07, No Iterations 0
DICPCG:  Solving for p, Initial residual = 0.00101143, Final residual = 0.000100086, No Iterations 27
DICPCG:  Solving for p, Initial residual = 0.000228556, Final residual = 2.26549e-05, No Iterations 69
DICPCG:  Solving for p, Initial residual = 5.39171e-05, Final residual = 9.42762e-06, No Iterations 34
time step continuity errors : sum local = 7.40476e-05, global = -3.76015e-06, cumulative = -1.70208e-05
DILUPBiCG:  Solving for epsilon, Initial residual = 0.000687175, Final residual = 9.84027e-06, No Iterations 2
bounding epsilon, min: -0.221679 max: 11630.4 average: 38.8438
DILUPBiCG:  Solving for k, Initial residual = 0.000896435, Final residual = 6.20635e-07, No Iterations 3
ExecutionTime = 1844.44 s  ClockTime = 1904 s

Time = 785

DILUPBiCG:  Solving for Ux, Initial residual = 3.14108e-07, Final residual = 3.14108e-07, No Iterations 0
DILUPBiCG:  Solving for Uy, Initial residual = 1.32486e-07, Final residual = 1.32486e-07, No Iterations 0
DILUPBiCG:  Solving for Uz, Initial residual = 1.98682e-07, Final residual = 1.98682e-07, No Iterations 0
DICPCG:  Solving for p, Initial residual = 0.00100805, Final residual = 0.000100577, No Iterations 27
DICPCG:  Solving for p, Initial residual = 0.000228462, Final residual = 2.21272e-05, No Iterations 70
DICPCG:  Solving for p, Initial residual = 5.3558e-05, Final residual = 9.79722e-06, No Iterations 35
time step continuity errors : sum local = 7.69814e-05, global = -4.82982e-06, cumulative = -2.18506e-05
DILUPBiCG:  Solving for epsilon, Initial residual = 0.000675706, Final residual = 8.78744e-06, No Iterations 2
bounding epsilon, min: -0.108832 max: 11630.4 average: 38.8288
DILUPBiCG:  Solving for k, Initial residual = 0.000896753, Final residual = 6.20137e-07, No Iterations 3
ExecutionTime = 1846.63 s  ClockTime = 1906 s

Time = 786

DILUPBiCG:  Solving for Ux, Initial residual = 3.14923e-07, Final residual = 3.14923e-07, No Iterations 0
DILUPBiCG:  Solving for Uy, Initial residual = 1.32649e-07, Final residual = 1.32649e-07, No Iterations 0
DILUPBiCG:  Solving for Uz, Initial residual = 1.99284e-07, Final residual = 1.99284e-07, No Iterations 0
DICPCG:  Solving for p, Initial residual = 0.00100361, Final residual = 0.000100279, No Iterations 27
DICPCG:  Solving for p, Initial residual = 0.000227905, Final residual = 2.24588e-05, No Iterations 70
DICPCG:  Solving for p, Initial residual = 5.3798e-05, Final residual = 9.57013e-06, No Iterations 45
time step continuity errors : sum local = 7.52273e-05, global = -6.40306e-06, cumulative = -2.82537e-05
DILUPBiCG:  Solving for epsilon, Initial residual = 0.000706347, Final residual = 5.71298e-07, No Iterations 3
bounding epsilon, min: -0.00791374 max: 11630.4 average: 38.814
DILUPBiCG:  Solving for k, Initial residual = 0.000897946, Final residual = 6.19783e-07, No Iterations 3
ExecutionTime = 1848.98 s  ClockTime = 1909 s

Time = 787

DILUPBiCG:  Solving for Ux, Initial residual = 3.15722e-07, Final residual = 3.15722e-07, No Iterations 0
DILUPBiCG:  Solving for Uy, Initial residual = 1.32814e-07, Final residual = 1.32814e-07, No Iterations 0
DILUPBiCG:  Solving for Uz, Initial residual = 1.99878e-07, Final residual = 1.99878e-07, No Iterations 0
DICPCG:  Solving for p, Initial residual = 0.0010028, Final residual = 9.38376e-05, No Iterations 28
DICPCG:  Solving for p, Initial residual = 0.000224527, Final residual = 2.16052e-05, No Iterations 86
DICPCG:  Solving for p, Initial residual = 5.30028e-05, Final residual = 9.56124e-06, No Iterations 10
time step continuity errors : sum local = 7.51879e-05, global = -1.16587e-05, cumulative = -3.99124e-05
DILUPBiCG:  Solving for epsilon, Initial residual = 0.000682631, Final residual = 8.85802e-06, No Iterations 2
bounding epsilon, min: -0.0671882 max: 11630.4 average: 38.7993
DILUPBiCG:  Solving for k, Initial residual = 0.000899166, Final residual = 6.19707e-07, No Iterations 3
ExecutionTime = 1851.09 s  ClockTime = 1911 s

Time = 788

DILUPBiCG:  Solving for Ux, Initial residual = 3.16531e-07, Final residual = 3.16531e-07, No Iterations 0
DILUPBiCG:  Solving for Uy, Initial residual = 1.32981e-07, Final residual = 1.32981e-07, No Iterations 0
DILUPBiCG:  Solving for Uz, Initial residual = 2.00516e-07, Final residual = 2.00516e-07, No Iterations 0
DICPCG:  Solving for p, Initial residual = 0.00100307, Final residual = 9.34024e-05, No Iterations 28
DICPCG:  Solving for p, Initial residual = 0.000224095, Final residual = 2.23232e-05, No Iterations 70
DICPCG:  Solving for p, Initial residual = 5.28152e-05, Final residual = 8.99201e-06, No Iterations 87
time step continuity errors : sum local = 7.07406e-05, global = -1.44289e-05, cumulative = -5.43413e-05
DILUPBiCG:  Solving for epsilon, Initial residual = 0.000672778, Final residual = 8.6533e-06, No Iterations 2
bounding epsilon, min: -0.0508914 max: 11630.4 average: 38.7846
DILUPBiCG:  Solving for k, Initial residual = 0.000900043, Final residual = 6.19693e-07, No Iterations 3
ExecutionTime = 1853.73 s  ClockTime = 1914 s

Time = 789

DILUPBiCG:  Solving for Ux, Initial residual = 3.1736e-07, Final residual = 3.1736e-07, No Iterations 0
DILUPBiCG:  Solving for Uy, Initial residual = 1.3315e-07, Final residual = 1.3315e-07, No Iterations 0
DILUPBiCG:  Solving for Uz, Initial residual = 2.01161e-07, Final residual = 2.01161e-07, No Iterations 0
DICPCG:  Solving for p, Initial residual = 0.00100438, Final residual = 9.31577e-05, No Iterations 28
DICPCG:  Solving for p, Initial residual = 0.00022373, Final residual = 2.18554e-05, No Iterations 69
DICPCG:  Solving for p, Initial residual = 5.19624e-05, Final residual = 9.73896e-06, No Iterations 89
time step continuity errors : sum local = 7.66493e-05, global = -1.72599e-05, cumulative = -7.16013e-05
DILUPBiCG:  Solving for epsilon, Initial residual = 0.000688979, Final residual = 5.85629e-07, No Iterations 3
DILUPBiCG:  Solving for k, Initial residual = 0.00090132, Final residual = 6.1985e-07, No Iterations 3
ExecutionTime = 1856.4 s  ClockTime = 1916 s

Time = 790

DILUPBiCG:  Solving for Ux, Initial residual = 3.18182e-07, Final residual = 3.18182e-07, No Iterations 0
DILUPBiCG:  Solving for Uy, Initial residual = 1.3332e-07, Final residual = 1.3332e-07, No Iterations 0
DILUPBiCG:  Solving for Uz, Initial residual = 2.01814e-07, Final residual = 2.01814e-07, No Iterations 0
DICPCG:  Solving for p, Initial residual = 0.00100334, Final residual = 0.000100003, No Iterations 27
DICPCG:  Solving for p, Initial residual = 0.000226747, Final residual = 2.22181e-05, No Iterations 68
DICPCG:  Solving for p, Initial residual = 5.21978e-05, Final residual = 9.89115e-06, No Iterations 237
time step continuity errors : sum local = 7.78801e-05, global = -5.57264e-08, cumulative = -7.1657e-05
DILUPBiCG:  Solving for epsilon, Initial residual = 0.000675814, Final residual = 8.54522e-06, No Iterations 2
bounding epsilon, min: -1.12157 max: 11630.4 average: 38.7555
DILUPBiCG:  Solving for k, Initial residual = 0.000902458, Final residual = 6.20009e-07, No Iterations 3
ExecutionTime = 1860.29 s  ClockTime = 1920 s

Time = 791

DILUPBiCG:  Solving for Ux, Initial residual = 3.18991e-07, Final residual = 3.18991e-07, No Iterations 0
DILUPBiCG:  Solving for Uy, Initial residual = 1.33511e-07, Final residual = 1.33511e-07, No Iterations 0
DILUPBiCG:  Solving for Uz, Initial residual = 2.02492e-07, Final residual = 2.02492e-07, No Iterations 0
DICPCG:  Solving for p, Initial residual = 0.00100098, Final residual = 9.89603e-05, No Iterations 27
DICPCG:  Solving for p, Initial residual = 0.00022574, Final residual = 2.20424e-05, No Iterations 67
DICPCG:  Solving for p, Initial residual = 5.18789e-05, Final residual = 9.52114e-06, No Iterations 64
time step continuity errors : sum local = 7.50931e-05, global = -1.00177e-05, cumulative = -8.16747e-05
DILUPBiCG:  Solving for epsilon, Initial residual = 0.00068106, Final residual = 6.1274e-07, No Iterations 3
bounding epsilon, min: -0.0132237 max: 11630.4 average: 38.7412
DILUPBiCG:  Solving for k, Initial residual = 0.000903203, Final residual = 6.19763e-07, No Iterations 3
ExecutionTime = 1862.72 s  ClockTime = 1923 s

Time = 792

DILUPBiCG:  Solving for Ux, Initial residual = 3.19782e-07, Final residual = 3.19782e-07, No Iterations 0
DILUPBiCG:  Solving for Uy, Initial residual = 1.33672e-07, Final residual = 1.33672e-07, No Iterations 0
DILUPBiCG:  Solving for Uz, Initial residual = 2.03121e-07, Final residual = 2.03121e-07, No Iterations 0
DICPCG:  Solving for p, Initial residual = 0.000996422, Final residual = 9.27852e-05, No Iterations 28
DICPCG:  Solving for p, Initial residual = 0.000221976, Final residual = 2.21783e-05, No Iterations 68
DICPCG:  Solving for p, Initial residual = 5.17617e-05, Final residual = 9.94857e-06, No Iterations 51
time step continuity errors : sum local = 7.84954e-05, global = -5.8974e-06, cumulative = -8.7572e-05
DILUPBiCG:  Solving for epsilon, Initial residual = 0.000707146, Final residual = 5.46619e-07, No Iterations 3
bounding epsilon, min: -0.0352292 max: 11630.4 average: 38.7268
DILUPBiCG:  Solving for k, Initial residual = 0.000904335, Final residual = 6.19582e-07, No Iterations 3
ExecutionTime = 1865.07 s  ClockTime = 1925 s


SIMPLE solution converged in 792 iterations

End

Finalising parallel run
