/*---------------------------------------------------------------------------*\
  =========                 |
  \\      /  F ield         | OpenFOAM: The Open Source CFD Toolbox
   \\    /   O peration     | Website:  https://openfoam.org
    \\  /    A nd           | Version:  6
     \\/     M anipulation  |
\*---------------------------------------------------------------------------*/
Build  : 6
Exec   : bouSimpleFoam -parallel
Date   : Aug 06 2020
Time   : 23:38:00
Host   : "emps-ugmat1"
PID    : 22795
I/O    : uncollated
Case   : /home/links/jjw230/Optimisation_second_draft/Case4
nProcs : 4
Slaves : 
3
(
"emps-ugmat1.22796"
"emps-ugmat1.22797"
"emps-ugmat1.22798"
)

Pstream initialized with:
    floatTransfer      : 0
    nProcsSimpleSum    : 0
    commsType          : nonBlocking
    polling iterations : 0
sigFpe : Enabling floating point exception trapping (FOAM_SIGFPE).
fileModificationChecking : Monitoring run-time modified files using timeStampMaster (fileModificationSkew 10)
allowSystemOperations : Allowing user-supplied system call operations

// * * * * * * * * * * * * * * * * * * * * * * * * * * * * * * * * * * * * * //
Create time

Create mesh for time = 0


SIMPLE: Convergence criteria found
        p: tolerance 0.001
        U: tolerance 0.001
        "(k|epsilon)": tolerance 0.001
        theta: tolerance 0.001

Reading field p

Reading field U

Reading field theta

Reading/calculating face flux field phi

Selecting incompressible transport model Newtonian
Selecting turbulence model type RAS
Selecting RAS turbulence model RNGkEpsilon
RAS
{
    RASModel        RNGkEpsilon;
    turbulence      on;
    printCoeffs     on;
    Cmu             0.0845;
    C1              1.42;
    C2              1.68;
    C3              0;
    sigmak          0.71942;
    sigmaEps        0.71942;
    eta0            4.38;
    beta            0.012;
}

No MRF models present

Creating finite volume options from "system/fvOptions"

Selecting finite volume options model type explicitPorositySource
    Source: source0
    - selecting cells using cellZone cz_solid_0
    - selected 2072 cell(s) with volume 0.00214207
Porosity region source0:
    selecting model: DarcyForchheimer
    creating porous zone: cz_solid_0
Selecting finite volume options model type explicitPorositySource
    Source: source1
    - selecting cells using cellZone cz_solid_1
    - selected 2082 cell(s) with volume 0.00214497
Porosity region source1:
    selecting model: DarcyForchheimer
    creating porous zone: cz_solid_1
Selecting finite volume options model type explicitPorositySource
    Source: source2
    - selecting cells using cellZone cz_solid_2
    - selected 2030 cell(s) with volume 0.00214183
Porosity region source2:
    selecting model: DarcyForchheimer
    creating porous zone: cz_solid_2
Selecting finite volume options model type explicitPorositySource
    Source: source3
    - selecting cells using cellZone cz_solid_3
    - selected 1925 cell(s) with volume 0.00214383
Porosity region source3:
    selecting model: DarcyForchheimer
    creating porous zone: cz_solid_3
Selecting finite volume options model type explicitPorositySource
    Source: source4
    - selecting cells using cellZone cz_solid_4
    - selected 1344 cell(s) with volume 0.00213906
Porosity region source4:
    selecting model: DarcyForchheimer
    creating porous zone: cz_solid_4
Selecting finite volume options model type explicitPorositySource
    Source: source5
    - selecting cells using cellZone cz_solid_5
    - selected 2044 cell(s) with volume 0.00214213
Porosity region source5:
    selecting model: DarcyForchheimer
    creating porous zone: cz_solid_5
Selecting finite volume options model type explicitPorositySource
    Source: source6
    - selecting cells using cellZone cz_solid_6
    - selected 1960 cell(s) with volume 0.00214325
Porosity region source6:
    selecting model: DarcyForchheimer
    creating porous zone: cz_solid_6
Selecting finite volume options model type explicitPorositySource
    Source: source7
    - selecting cells using cellZone cz_solid_7
    - selected 2027 cell(s) with volume 0.00214432
Porosity region source7:
    selecting model: DarcyForchheimer
    creating porous zone: cz_solid_7
Selecting finite volume options model type explicitPorositySource
    Source: source8
    - selecting cells using cellZone cz_solid_8
    - selected 1456 cell(s) with volume 0.00213944
Porosity region source8:
    selecting model: DarcyForchheimer
    creating porous zone: cz_solid_8
Selecting finite volume options model type explicitPorositySource
    Source: source9
    - selecting cells using cellZone cz_solid_9
    - selected 2016 cell(s) with volume 0.00214407
Porosity region source9:
    selecting model: DarcyForchheimer
    creating porous zone: cz_solid_9
Selecting finite volume options model type explicitPorositySource
    Source: source10
    - selecting cells using cellZone cz_solid_10
    - selected 2017 cell(s) with volume 0.00214466
Porosity region source10:
    selecting model: DarcyForchheimer
    creating porous zone: cz_solid_10
Selecting finite volume options model type explicitPorositySource
    Source: source11
    - selecting cells using cellZone cz_solid_11
    - selected 2072 cell(s) with volume 0.00214132
Porosity region source11:
    selecting model: DarcyForchheimer
    creating porous zone: cz_solid_11
Selecting finite volume options model type explicitPorositySource
    Source: source12
    - selecting cells using cellZone cz_solid_12
    - selected 2149 cell(s) with volume 0.00214457
Porosity region source12:
    selecting model: DarcyForchheimer
    creating porous zone: cz_solid_12
Selecting finite volume options model type explicitPorositySource
    Source: source13
    - selecting cells using cellZone cz_solid_13
    - selected 1797 cell(s) with volume 0.00214261
Porosity region source13:
    selecting model: DarcyForchheimer
    creating porous zone: cz_solid_13
Selecting finite volume options model type explicitPorositySource
    Source: source14
    - selecting cells using cellZone cz_solid_14
    - selected 1915 cell(s) with volume 0.0021456
Porosity region source14:
    selecting model: DarcyForchheimer
    creating porous zone: cz_solid_14
Selecting finite volume options model type explicitPorositySource
    Source: source15
    - selecting cells using cellZone cz_solid_15
    - selected 1938 cell(s) with volume 0.00214261
Porosity region source15:
    selecting model: DarcyForchheimer
    creating porous zone: cz_solid_15
Selecting finite volume options model type explicitPorositySource
    Source: source16
    - selecting cells using cellZone cz_solid_16
    - selected 1789 cell(s) with volume 0.00214176
Porosity region source16:
    selecting model: DarcyForchheimer
    creating porous zone: cz_solid_16
Selecting finite volume options model type explicitPorositySource
    Source: source17
    - selecting cells using cellZone cz_solid_17
    - selected 1906 cell(s) with volume 0.00213746
Porosity region source17:
    selecting model: DarcyForchheimer
    creating porous zone: cz_solid_17
Selecting finite volume options model type explicitPorositySource
    Source: source18
    - selecting cells using cellZone cz_solid_18
    - selected 1915 cell(s) with volume 0.00214508
Porosity region source18:
    selecting model: DarcyForchheimer
    creating porous zone: cz_solid_18
Selecting finite volume options model type explicitPorositySource
    Source: source19
    - selecting cells using cellZone cz_solid_19
    - selected 1918 cell(s) with volume 0.00214445
Porosity region source19:
    selecting model: DarcyForchheimer
    creating porous zone: cz_solid_19
Selecting finite volume options model type explicitPorositySource
    Source: source20
    - selecting cells using cellZone cz_solid_20
    - selected 2192 cell(s) with volume 0.00214224
Porosity region source20:
    selecting model: DarcyForchheimer
    creating porous zone: cz_solid_20
Selecting finite volume options model type explicitPorositySource
    Source: source21
    - selecting cells using cellZone cz_solid_21
    - selected 2192 cell(s) with volume 0.00214393
Porosity region source21:
    selecting model: DarcyForchheimer
    creating porous zone: cz_solid_21
Selecting finite volume options model type explicitPorositySource
    Source: source22
    - selecting cells using cellZone cz_solid_22
    - selected 2150 cell(s) with volume 0.00214193
Porosity region source22:
    selecting model: DarcyForchheimer
    creating porous zone: cz_solid_22
Selecting finite volume options model type explicitPorositySource
    Source: source23
    - selecting cells using cellZone cz_solid_23
    - selected 2044 cell(s) with volume 0.00214401
Porosity region source23:
    selecting model: DarcyForchheimer
    creating porous zone: cz_solid_23
Selecting finite volume options model type explicitPorositySource
    Source: source24
    - selecting cells using cellZone cz_solid_24
    - selected 1436 cell(s) with volume 0.00213928
Porosity region source24:
    selecting model: DarcyForchheimer
    creating porous zone: cz_solid_24
Selecting finite volume options model type explicitPorositySource
    Source: source25
    - selecting cells using cellZone cz_solid_25
    - selected 2136 cell(s) with volume 0.0021424
Porosity region source25:
    selecting model: DarcyForchheimer
    creating porous zone: cz_solid_25
Selecting finite volume options model type explicitPorositySource
    Source: source26
    - selecting cells using cellZone cz_solid_26
    - selected 2080 cell(s) with volume 0.00214372
Porosity region source26:
    selecting model: DarcyForchheimer
    creating porous zone: cz_solid_26
Selecting finite volume options model type explicitPorositySource
    Source: source27
    - selecting cells using cellZone cz_solid_27
    - selected 2122 cell(s) with volume 0.00214391
Porosity region source27:
    selecting model: DarcyForchheimer
    creating porous zone: cz_solid_27
Selecting finite volume options model type explicitPorositySource
    Source: source28
    - selecting cells using cellZone cz_solid_28
    - selected 1548 cell(s) with volume 0.00213976
Porosity region source28:
    selecting model: DarcyForchheimer
    creating porous zone: cz_solid_28
Selecting finite volume options model type explicitPorositySource
    Source: source29
    - selecting cells using cellZone cz_solid_29
    - selected 2080 cell(s) with volume 0.00214401
Porosity region source29:
    selecting model: DarcyForchheimer
    creating porous zone: cz_solid_29
Selecting finite volume options model type explicitPorositySource
    Source: source30
    - selecting cells using cellZone cz_solid_30
    - selected 2114 cell(s) with volume 0.00214487
Porosity region source30:
    selecting model: DarcyForchheimer
    creating porous zone: cz_solid_30
Selecting finite volume options model type explicitPorositySource
    Source: source31
    - selecting cells using cellZone cz_solid_31
    - selected 2192 cell(s) with volume 0.00214141
Porosity region source31:
    selecting model: DarcyForchheimer
    creating porous zone: cz_solid_31
Selecting finite volume options model type explicitPorositySource
    Source: source32
    - selecting cells using cellZone cz_solid_32
    - selected 2268 cell(s) with volume 0.00214499
Porosity region source32:
    selecting model: DarcyForchheimer
    creating porous zone: cz_solid_32
Selecting finite volume options model type explicitPorositySource
    Source: source33
    - selecting cells using cellZone cz_solid_33
    - selected 1858 cell(s) with volume 0.00214268
Porosity region source33:
    selecting model: DarcyForchheimer
    creating porous zone: cz_solid_33
Selecting finite volume options model type explicitPorositySource
    Source: source34
    - selecting cells using cellZone cz_solid_34
    - selected 1994 cell(s) with volume 0.00214495
Porosity region source34:
    selecting model: DarcyForchheimer
    creating porous zone: cz_solid_34
Selecting finite volume options model type explicitPorositySource
    Source: source35
    - selecting cells using cellZone cz_solid_35
    - selected 2080 cell(s) with volume 0.00214329
Porosity region source35:
    selecting model: DarcyForchheimer
    creating porous zone: cz_solid_35
Selecting finite volume options model type explicitPorositySource
    Source: source36
    - selecting cells using cellZone cz_solid_36
    - selected 1858 cell(s) with volume 0.00214219
Porosity region source36:
    selecting model: DarcyForchheimer
    creating porous zone: cz_solid_36
Selecting finite volume options model type explicitPorositySource
    Source: source37
    - selecting cells using cellZone cz_solid_37
    - selected 2022 cell(s) with volume 0.00213954
Porosity region source37:
    selecting model: DarcyForchheimer
    creating porous zone: cz_solid_37
Selecting finite volume options model type explicitPorositySource
    Source: source38
    - selecting cells using cellZone cz_solid_38
    - selected 1978 cell(s) with volume 0.00214507
Porosity region source38:
    selecting model: DarcyForchheimer
    creating porous zone: cz_solid_38
Selecting finite volume options model type explicitPorositySource
    Source: source39
    - selecting cells using cellZone cz_solid_39
    - selected 2010 cell(s) with volume 0.00214498
Porosity region source39:
    selecting model: DarcyForchheimer
    creating porous zone: cz_solid_39
Selecting finite volume options model type explicitPorositySource
    Source: source40
    - selecting cells using cellZone cz_solid_40
    - selected 2072 cell(s) with volume 0.00214203
Porosity region source40:
    selecting model: DarcyForchheimer
    creating porous zone: cz_solid_40
Selecting finite volume options model type explicitPorositySource
    Source: source41
    - selecting cells using cellZone cz_solid_41
    - selected 2100 cell(s) with volume 0.00214381
Porosity region source41:
    selecting model: DarcyForchheimer
    creating porous zone: cz_solid_41
Selecting finite volume options model type explicitPorositySource
    Source: source42
    - selecting cells using cellZone cz_solid_42
    - selected 2030 cell(s) with volume 0.00214176
Porosity region source42:
    selecting model: DarcyForchheimer
    creating porous zone: cz_solid_42
Selecting finite volume options model type explicitPorositySource
    Source: source43
    - selecting cells using cellZone cz_solid_43
    - selected 1925 cell(s) with volume 0.00214347
Porosity region source43:
    selecting model: DarcyForchheimer
    creating porous zone: cz_solid_43
Selecting finite volume options model type explicitPorositySource
    Source: source44
    - selecting cells using cellZone cz_solid_44
    - selected 1344 cell(s) with volume 0.00213922
Porosity region source44:
    selecting model: DarcyForchheimer
    creating porous zone: cz_solid_44
Selecting finite volume options model type explicitPorositySource
    Source: source45
    - selecting cells using cellZone cz_solid_45
    - selected 2044 cell(s) with volume 0.00214213
Porosity region source45:
    selecting model: DarcyForchheimer
    creating porous zone: cz_solid_45
Selecting finite volume options model type explicitPorositySource
    Source: source46
    - selecting cells using cellZone cz_solid_46
    - selected 1960 cell(s) with volume 0.00214353
Porosity region source46:
    selecting model: DarcyForchheimer
    creating porous zone: cz_solid_46
Selecting finite volume options model type explicitPorositySource
    Source: source47
    - selecting cells using cellZone cz_solid_47
    - selected 2030 cell(s) with volume 0.00214379
Porosity region source47:
    selecting model: DarcyForchheimer
    creating porous zone: cz_solid_47
Selecting finite volume options model type explicitPorositySource
    Source: source48
    - selecting cells using cellZone cz_solid_48
    - selected 1456 cell(s) with volume 0.00213931
Porosity region source48:
    selecting model: DarcyForchheimer
    creating porous zone: cz_solid_48
Selecting finite volume options model type explicitPorositySource
    Source: source49
    - selecting cells using cellZone cz_solid_49
    - selected 1960 cell(s) with volume 0.00214363
Porosity region source49:
    selecting model: DarcyForchheimer
    creating porous zone: cz_solid_49
Selecting finite volume options model type explicitPorositySource
    Source: source50
    - selecting cells using cellZone cz_solid_50
    - selected 1993 cell(s) with volume 0.0021449
Porosity region source50:
    selecting model: DarcyForchheimer
    creating porous zone: cz_solid_50
Selecting finite volume options model type explicitPorositySource
    Source: source51
    - selecting cells using cellZone cz_solid_51
    - selected 2072 cell(s) with volume 0.00214133
Porosity region source51:
    selecting model: DarcyForchheimer
    creating porous zone: cz_solid_51
Selecting finite volume options model type explicitPorositySource
    Source: source52
    - selecting cells using cellZone cz_solid_52
    - selected 2149 cell(s) with volume 0.00214484
Porosity region source52:
    selecting model: DarcyForchheimer
    creating porous zone: cz_solid_52
Selecting finite volume options model type explicitPorositySource
    Source: source53
    - selecting cells using cellZone cz_solid_53
    - selected 1801 cell(s) with volume 0.00214285
Porosity region source53:
    selecting model: DarcyForchheimer
    creating porous zone: cz_solid_53
Selecting finite volume options model type explicitPorositySource
    Source: source54
    - selecting cells using cellZone cz_solid_54
    - selected 1894 cell(s) with volume 0.00214476
Porosity region source54:
    selecting model: DarcyForchheimer
    creating porous zone: cz_solid_54
Selecting finite volume options model type explicitPorositySource
    Source: source55
    - selecting cells using cellZone cz_solid_55
    - selected 1938 cell(s) with volume 0.00214273
Porosity region source55:
    selecting model: DarcyForchheimer
    creating porous zone: cz_solid_55
Selecting finite volume options model type explicitPorositySource
    Source: source56
    - selecting cells using cellZone cz_solid_56
    - selected 1793 cell(s) with volume 0.00214219
Porosity region source56:
    selecting model: DarcyForchheimer
    creating porous zone: cz_solid_56
Selecting finite volume options model type explicitPorositySource
    Source: source57
    - selecting cells using cellZone cz_solid_57
    - selected 1896 cell(s) with volume 0.00213805
Porosity region source57:
    selecting model: DarcyForchheimer
    creating porous zone: cz_solid_57
Selecting finite volume options model type explicitPorositySource
    Source: source58
    - selecting cells using cellZone cz_solid_58
    - selected 1894 cell(s) with volume 0.00214454
Porosity region source58:
    selecting model: DarcyForchheimer
    creating porous zone: cz_solid_58
Selecting finite volume options model type explicitPorositySource
    Source: source59
    - selecting cells using cellZone cz_solid_59
    - selected 1918 cell(s) with volume 0.00214462
Porosity region source59:
    selecting model: DarcyForchheimer
    creating porous zone: cz_solid_59
Selecting finite volume options model type explicitPorositySource
    Source: source60
    - selecting cells using cellZone cz_solid_60
    - selected 2100 cell(s) with volume 0.00214191
Porosity region source60:
    selecting model: DarcyForchheimer
    creating porous zone: cz_solid_60
Selecting finite volume options model type explicitPorositySource
    Source: source61
    - selecting cells using cellZone cz_solid_61
    - selected 2100 cell(s) with volume 0.00214357
Porosity region source61:
    selecting model: DarcyForchheimer
    creating porous zone: cz_solid_61
Selecting finite volume options model type explicitPorositySource
    Source: source62
    - selecting cells using cellZone cz_solid_62
    - selected 2058 cell(s) with volume 0.00214159
Porosity region source62:
    selecting model: DarcyForchheimer
    creating porous zone: cz_solid_62
Selecting finite volume options model type explicitPorositySource
    Source: source63
    - selecting cells using cellZone cz_solid_63
    - selected 1946 cell(s) with volume 0.00214357
Porosity region source63:
    selecting model: DarcyForchheimer
    creating porous zone: cz_solid_63
Selecting finite volume options model type explicitPorositySource
    Source: source64
    - selecting cells using cellZone cz_solid_64
    - selected 1322 cell(s) with volume 0.00213901
Porosity region source64:
    selecting model: DarcyForchheimer
    creating porous zone: cz_solid_64
Selecting finite volume options model type explicitPorositySource
    Source: source65
    - selecting cells using cellZone cz_solid_65
    - selected 2044 cell(s) with volume 0.00214199
Porosity region source65:
    selecting model: DarcyForchheimer
    creating porous zone: cz_solid_65
Selecting finite volume options model type explicitPorositySource
    Source: source66
    - selecting cells using cellZone cz_solid_66
    - selected 1988 cell(s) with volume 0.00214335
Porosity region source66:
    selecting model: DarcyForchheimer
    creating porous zone: cz_solid_66
Selecting finite volume options model type explicitPorositySource
    Source: source67
    - selecting cells using cellZone cz_solid_67
    - selected 2037 cell(s) with volume 0.00214363
Porosity region source67:
    selecting model: DarcyForchheimer
    creating porous zone: cz_solid_67
Selecting finite volume options model type explicitPorositySource
    Source: source68
    - selecting cells using cellZone cz_solid_68
    - selected 1434 cell(s) with volume 0.00213929
Porosity region source68:
    selecting model: DarcyForchheimer
    creating porous zone: cz_solid_68
Selecting finite volume options model type explicitPorositySource
    Source: source69
    - selecting cells using cellZone cz_solid_69
    - selected 2016 cell(s) with volume 0.00214367
Porosity region source69:
    selecting model: DarcyForchheimer
    creating porous zone: cz_solid_69
Selecting finite volume options model type explicitPorositySource
    Source: source70
    - selecting cells using cellZone cz_solid_70
    - selected 2028 cell(s) with volume 0.00214496
Porosity region source70:
    selecting model: DarcyForchheimer
    creating porous zone: cz_solid_70
Selecting finite volume options model type explicitPorositySource
    Source: source71
    - selecting cells using cellZone cz_solid_71
    - selected 2093 cell(s) with volume 0.00214136
Porosity region source71:
    selecting model: DarcyForchheimer
    creating porous zone: cz_solid_71
Selecting finite volume options model type explicitPorositySource
    Source: source72
    - selecting cells using cellZone cz_solid_72
    - selected 2170 cell(s) with volume 0.00214458
Porosity region source72:
    selecting model: DarcyForchheimer
    creating porous zone: cz_solid_72
Selecting finite volume options model type explicitPorositySource
    Source: source73
    - selecting cells using cellZone cz_solid_73
    - selected 1781 cell(s) with volume 0.00214213
Porosity region source73:
    selecting model: DarcyForchheimer
    creating porous zone: cz_solid_73
Selecting finite volume options model type explicitPorositySource
    Source: source74
    - selecting cells using cellZone cz_solid_74
    - selected 1907 cell(s) with volume 0.00214474
Porosity region source74:
    selecting model: DarcyForchheimer
    creating porous zone: cz_solid_74
Selecting finite volume options model type explicitPorositySource
    Source: source75
    - selecting cells using cellZone cz_solid_75
    - selected 1988 cell(s) with volume 0.00214277
Porosity region source75:
    selecting model: DarcyForchheimer
    creating porous zone: cz_solid_75
Selecting finite volume options model type explicitPorositySource
    Source: source76
    - selecting cells using cellZone cz_solid_76
    - selected 1781 cell(s) with volume 0.00214157
Porosity region source76:
    selecting model: DarcyForchheimer
    creating porous zone: cz_solid_76
Selecting finite volume options model type explicitPorositySource
    Source: source77
    - selecting cells using cellZone cz_solid_77
    - selected 1872 cell(s) with volume 0.00213797
Porosity region source77:
    selecting model: DarcyForchheimer
    creating porous zone: cz_solid_77
Selecting finite volume options model type explicitPorositySource
    Source: source78
    - selecting cells using cellZone cz_solid_78
    - selected 1900 cell(s) with volume 0.00214465
Porosity region source78:
    selecting model: DarcyForchheimer
    creating porous zone: cz_solid_78
Selecting finite volume options model type explicitPorositySource
    Source: source79
    - selecting cells using cellZone cz_solid_79
    - selected 1925 cell(s) with volume 0.00214433
Porosity region source79:
    selecting model: DarcyForchheimer
    creating porous zone: cz_solid_79
Selecting finite volume options model type explicitPorositySource
    Source: source80
    - selecting cells using cellZone cz_solid_80
    - selected 2123 cell(s) with volume 0.00214179
Porosity region source80:
    selecting model: DarcyForchheimer
    creating porous zone: cz_solid_80
Selecting finite volume options model type explicitPorositySource
    Source: source81
    - selecting cells using cellZone cz_solid_81
    - selected 2123 cell(s) with volume 0.00214388
Porosity region source81:
    selecting model: DarcyForchheimer
    creating porous zone: cz_solid_81
Selecting finite volume options model type explicitPorositySource
    Source: source82
    - selecting cells using cellZone cz_solid_82
    - selected 2084 cell(s) with volume 0.00214141
Porosity region source82:
    selecting model: DarcyForchheimer
    creating porous zone: cz_solid_82
Selecting finite volume options model type explicitPorositySource
    Source: source83
    - selecting cells using cellZone cz_solid_83
    - selected 1976 cell(s) with volume 0.00214326
Porosity region source83:
    selecting model: DarcyForchheimer
    creating porous zone: cz_solid_83
Selecting finite volume options model type explicitPorositySource
    Source: source84
    - selecting cells using cellZone cz_solid_84
    - selected 1400 cell(s) with volume 0.00213947
Porosity region source84:
    selecting model: DarcyForchheimer
    creating porous zone: cz_solid_84
Selecting finite volume options model type explicitPorositySource
    Source: source85
    - selecting cells using cellZone cz_solid_85
    - selected 2036 cell(s) with volume 0.00214182
Porosity region source85:
    selecting model: DarcyForchheimer
    creating porous zone: cz_solid_85
Selecting finite volume options model type explicitPorositySource
    Source: source86
    - selecting cells using cellZone cz_solid_86
    - selected 2025 cell(s) with volume 0.00214319
Porosity region source86:
    selecting model: DarcyForchheimer
    creating porous zone: cz_solid_86
Selecting finite volume options model type explicitPorositySource
    Source: source87
    - selecting cells using cellZone cz_solid_87
    - selected 2069 cell(s) with volume 0.00214361
Porosity region source87:
    selecting model: DarcyForchheimer
    creating porous zone: cz_solid_87
Selecting finite volume options model type explicitPorositySource
    Source: source88
    - selecting cells using cellZone cz_solid_88
    - selected 1505 cell(s) with volume 0.0021395
Porosity region source88:
    selecting model: DarcyForchheimer
    creating porous zone: cz_solid_88
Selecting finite volume options model type explicitPorositySource
    Source: source89
    - selecting cells using cellZone cz_solid_89
    - selected 2053 cell(s) with volume 0.00214337
Porosity region source89:
    selecting model: DarcyForchheimer
    creating porous zone: cz_solid_89
Selecting finite volume options model type explicitPorositySource
    Source: source90
    - selecting cells using cellZone cz_solid_90
    - selected 2054 cell(s) with volume 0.00214457
Porosity region source90:
    selecting model: DarcyForchheimer
    creating porous zone: cz_solid_90
Selecting finite volume options model type explicitPorositySource
    Source: source91
    - selecting cells using cellZone cz_solid_91
    - selected 2116 cell(s) with volume 0.00214081
Porosity region source91:
    selecting model: DarcyForchheimer
    creating porous zone: cz_solid_91
Selecting finite volume options model type explicitPorositySource
    Source: source92
    - selecting cells using cellZone cz_solid_92
    - selected 2186 cell(s) with volume 0.00214452
Porosity region source92:
    selecting model: DarcyForchheimer
    creating porous zone: cz_solid_92
Selecting finite volume options model type explicitPorositySource
    Source: source93
    - selecting cells using cellZone cz_solid_93
    - selected 1812 cell(s) with volume 0.00214238
Porosity region source93:
    selecting model: DarcyForchheimer
    creating porous zone: cz_solid_93
Selecting finite volume options model type explicitPorositySource
    Source: source94
    - selecting cells using cellZone cz_solid_94
    - selected 1916 cell(s) with volume 0.00214483
Porosity region source94:
    selecting model: DarcyForchheimer
    creating porous zone: cz_solid_94
Selecting finite volume options model type explicitPorositySource
    Source: source95
    - selecting cells using cellZone cz_solid_95
    - selected 2062 cell(s) with volume 0.00214349
Porosity region source95:
    selecting model: DarcyForchheimer
    creating porous zone: cz_solid_95
Selecting finite volume options model type explicitPorositySource
    Source: source96
    - selecting cells using cellZone cz_solid_96
    - selected 1800 cell(s) with volume 0.00214191
Porosity region source96:
    selecting model: DarcyForchheimer
    creating porous zone: cz_solid_96
Selecting finite volume options model type explicitPorositySource
    Source: source97
    - selecting cells using cellZone cz_solid_97
    - selected 1902 cell(s) with volume 0.00213753
Porosity region source97:
    selecting model: DarcyForchheimer
    creating porous zone: cz_solid_97
Selecting finite volume options model type explicitPorositySource
    Source: source98
    - selecting cells using cellZone cz_solid_98
    - selected 1930 cell(s) with volume 0.00214444
Porosity region source98:
    selecting model: DarcyForchheimer
    creating porous zone: cz_solid_98
Selecting finite volume options model type explicitPorositySource
    Source: source99
    - selecting cells using cellZone cz_solid_99
    - selected 1937 cell(s) with volume 0.0021446
Porosity region source99:
    selecting model: DarcyForchheimer
    creating porous zone: cz_solid_99

Starting time loop

forces porousforces:
--> FOAM Warning : 
    From function Foam::labelHashSet Foam::polyBoundaryMesh::patchSet(const Foam::UList<Foam::wordRe>&, bool, bool) const
    in file meshes/polyMesh/polyBoundaryMesh/polyBoundaryMesh.C at line 798
    Cannot find any patch or group names matching solid_to_fluid
    Including porosity effects


surfaceFieldValue massFlowAtFilter_0:
    total faces  = 1654
    total area   = 0.101679




surfaceFieldValue massFlowAtFilter_1:
    total faces  = 1722
    total area   = 0.101649




surfaceFieldValue massFlowAtFilter_2:
    total faces  = 1616
    total area   = 0.10168




surfaceFieldValue massFlowAtFilter_3:
    total faces  = 1674
    total area   = 0.101733




surfaceFieldValue massFlowAtFilter_4:
    total faces  = 1414
    total area   = 0.101624




surfaceFieldValue massFlowAtFilter_5:
    total faces  = 1618
    total area   = 0.101692




surfaceFieldValue massFlowAtFilter_6:
    total faces  = 1676
    total area   = 0.10174




surfaceFieldValue massFlowAtFilter_7:
    total faces  = 1641
    total area   = 0.101672




surfaceFieldValue massFlowAtFilter_8:
    total faces  = 1414
    total area   = 0.101645




surfaceFieldValue massFlowAtFilter_9:
    total faces  = 1700
    total area   = 0.101763




surfaceFieldValue massFlowAtFilter_10:
    total faces  = 1732
    total area   = 0.101665




surfaceFieldValue massFlowAtFilter_11:
    total faces  = 1724
    total area   = 0.101637




surfaceFieldValue massFlowAtFilter_12:
    total faces  = 1722
    total area   = 0.101668




surfaceFieldValue massFlowAtFilter_13:
    total faces  = 1610
    total area   = 0.101716




surfaceFieldValue massFlowAtFilter_14:
    total faces  = 1729
    total area   = 0.101712




surfaceFieldValue massFlowAtFilter_15:
    total faces  = 1648
    total area   = 0.10165




surfaceFieldValue massFlowAtFilter_16:
    total faces  = 1604
    total area   = 0.101687




surfaceFieldValue massFlowAtFilter_17:
    total faces  = 1552
    total area   = 0.101652




surfaceFieldValue massFlowAtFilter_18:
    total faces  = 1725
    total area   = 0.101702




surfaceFieldValue massFlowAtFilter_19:
    total faces  = 1646
    total area   = 0.101723




surfaceFieldValue massFlowAtFilter_20:
    total faces  = 1696
    total area   = 0.101649




surfaceFieldValue massFlowAtFilter_21:
    total faces  = 1768
    total area   = 0.101623




surfaceFieldValue massFlowAtFilter_22:
    total faces  = 1658
    total area   = 0.101643




surfaceFieldValue massFlowAtFilter_23:
    total faces  = 1718
    total area   = 0.101655




surfaceFieldValue massFlowAtFilter_24:
    total faces  = 1460
    total area   = 0.101588




surfaceFieldValue massFlowAtFilter_25:
    total faces  = 1660
    total area   = 0.101658




surfaceFieldValue massFlowAtFilter_26:
    total faces  = 1720
    total area   = 0.101694




surfaceFieldValue massFlowAtFilter_27:
    total faces  = 1680
    total area   = 0.101615




surfaceFieldValue massFlowAtFilter_28:
    total faces  = 1460
    total area   = 0.101592




surfaceFieldValue massFlowAtFilter_29:
    total faces  = 1720
    total area   = 0.101716




surfaceFieldValue massFlowAtFilter_30:
    total faces  = 1784
    total area   = 0.101636




surfaceFieldValue massFlowAtFilter_31:
    total faces  = 1768
    total area   = 0.101631




surfaceFieldValue massFlowAtFilter_32:
    total faces  = 1766
    total area   = 0.101621




surfaceFieldValue massFlowAtFilter_33:
    total faces  = 1636
    total area   = 0.10168




surfaceFieldValue massFlowAtFilter_34:
    total faces  = 1782
    total area   = 0.101608




surfaceFieldValue massFlowAtFilter_35:
    total faces  = 1698
    total area   = 0.10162




surfaceFieldValue massFlowAtFilter_36:
    total faces  = 1636
    total area   = 0.101683




surfaceFieldValue massFlowAtFilter_37:
    total faces  = 1600
    total area   = 0.101628




surfaceFieldValue massFlowAtFilter_38:
    total faces  = 1778
    total area   = 0.10166




surfaceFieldValue massFlowAtFilter_39:
    total faces  = 1690
    total area   = 0.101661




surfaceFieldValue massFlowAtFilter_40:
    total faces  = 1654
    total area   = 0.101696




surfaceFieldValue massFlowAtFilter_41:
    total faces  = 1724
    total area   = 0.101677




surfaceFieldValue massFlowAtFilter_42:
    total faces  = 1616
    total area   = 0.101689




surfaceFieldValue massFlowAtFilter_43:
    total faces  = 1674
    total area   = 0.101775




surfaceFieldValue massFlowAtFilter_44:
    total faces  = 1414
    total area   = 0.101645




surfaceFieldValue massFlowAtFilter_45:
    total faces  = 1618
    total area   = 0.101703




surfaceFieldValue massFlowAtFilter_46:
    total faces  = 1676
    total area   = 0.101781




surfaceFieldValue massFlowAtFilter_47:
    total faces  = 1636
    total area   = 0.101692




surfaceFieldValue massFlowAtFilter_48:
    total faces  = 1414
    total area   = 0.101641




surfaceFieldValue massFlowAtFilter_49:
    total faces  = 1676
    total area   = 0.101786




surfaceFieldValue massFlowAtFilter_50:
    total faces  = 1740
    total area   = 0.101707




surfaceFieldValue massFlowAtFilter_51:
    total faces  = 1724
    total area   = 0.101705




surfaceFieldValue massFlowAtFilter_52:
    total faces  = 1722
    total area   = 0.101709




surfaceFieldValue massFlowAtFilter_53:
    total faces  = 1610
    total area   = 0.10174




surfaceFieldValue massFlowAtFilter_54:
    total faces  = 1736
    total area   = 0.101714




surfaceFieldValue massFlowAtFilter_55:
    total faces  = 1648
    total area   = 0.1017




surfaceFieldValue massFlowAtFilter_56:
    total faces  = 1604
    total area   = 0.101736




surfaceFieldValue massFlowAtFilter_57:
    total faces  = 1536
    total area   = 0.101683




surfaceFieldValue massFlowAtFilter_58:
    total faces  = 1732
    total area   = 0.101763




surfaceFieldValue massFlowAtFilter_59:
    total faces  = 1646
    total area   = 0.101735




surfaceFieldValue massFlowAtFilter_60:
    total faces  = 1654
    total area   = 0.1017




surfaceFieldValue massFlowAtFilter_61:
    total faces  = 1724
    total area   = 0.101694




surfaceFieldValue massFlowAtFilter_62:
    total faces  = 1616
    total area   = 0.101698




surfaceFieldValue massFlowAtFilter_63:
    total faces  = 1674
    total area   = 0.101788




surfaceFieldValue massFlowAtFilter_64:
    total faces  = 1400
    total area   = 0.101629




surfaceFieldValue massFlowAtFilter_65:
    total faces  = 1618
    total area   = 0.101707




surfaceFieldValue massFlowAtFilter_66:
    total faces  = 1676
    total area   = 0.101775




surfaceFieldValue massFlowAtFilter_67:
    total faces  = 1639
    total area   = 0.101715




surfaceFieldValue massFlowAtFilter_68:
    total faces  = 1400
    total area   = 0.101641




surfaceFieldValue massFlowAtFilter_69:
    total faces  = 1688
    total area   = 0.101794




surfaceFieldValue massFlowAtFilter_70:
    total faces  = 1736
    total area   = 0.101717




surfaceFieldValue massFlowAtFilter_71:
    total faces  = 1724
    total area   = 0.101704




surfaceFieldValue massFlowAtFilter_72:
    total faces  = 1722
    total area   = 0.101728




surfaceFieldValue massFlowAtFilter_73:
    total faces  = 1595
    total area   = 0.101774




surfaceFieldValue massFlowAtFilter_74:
    total faces  = 1734
    total area   = 0.101729




surfaceFieldValue massFlowAtFilter_75:
    total faces  = 1654
    total area   = 0.101716




surfaceFieldValue massFlowAtFilter_76:
    total faces  = 1595
    total area   = 0.101757




surfaceFieldValue massFlowAtFilter_77:
    total faces  = 1526
    total area   = 0.101677




surfaceFieldValue massFlowAtFilter_78:
    total faces  = 1730
    total area   = 0.101775




surfaceFieldValue massFlowAtFilter_79:
    total faces  = 1646
    total area   = 0.101736




surfaceFieldValue massFlowAtFilter_80:
    total faces  = 1661
    total area   = 0.101697




surfaceFieldValue massFlowAtFilter_81:
    total faces  = 1731
    total area   = 0.101673




surfaceFieldValue massFlowAtFilter_82:
    total faces  = 1626
    total area   = 0.101693




surfaceFieldValue massFlowAtFilter_83:
    total faces  = 1684
    total area   = 0.101705




surfaceFieldValue massFlowAtFilter_84:
    total faces  = 1446
    total area   = 0.101623




surfaceFieldValue massFlowAtFilter_85:
    total faces  = 1624
    total area   = 0.101701




surfaceFieldValue massFlowAtFilter_86:
    total faces  = 1686
    total area   = 0.101689




surfaceFieldValue massFlowAtFilter_87:
    total faces  = 1651
    total area   = 0.1017




surfaceFieldValue massFlowAtFilter_88:
    total faces  = 1446
    total area   = 0.1016




surfaceFieldValue massFlowAtFilter_89:
    total faces  = 1698
    total area   = 0.101718




surfaceFieldValue massFlowAtFilter_90:
    total faces  = 1742
    total area   = 0.101696




surfaceFieldValue massFlowAtFilter_91:
    total faces  = 1731
    total area   = 0.10167




surfaceFieldValue massFlowAtFilter_92:
    total faces  = 1729
    total area   = 0.101684




surfaceFieldValue massFlowAtFilter_93:
    total faces  = 1616
    total area   = 0.101728




surfaceFieldValue massFlowAtFilter_94:
    total faces  = 1741
    total area   = 0.101688




surfaceFieldValue massFlowAtFilter_95:
    total faces  = 1693
    total area   = 0.101682




surfaceFieldValue massFlowAtFilter_96:
    total faces  = 1610
    total area   = 0.101713




surfaceFieldValue massFlowAtFilter_97:
    total faces  = 1529
    total area   = 0.101673




surfaceFieldValue massFlowAtFilter_98:
    total faces  = 1737
    total area   = 0.101773




surfaceFieldValue massFlowAtFilter_99:
    total faces  = 1658
    total area   = 0.101719


Time = 1

DILUPBiCG:  Solving for Ux, Initial residual = 1, Final residual = 3.3331e-06, No Iterations 5
DILUPBiCG:  Solving for Uy, Initial residual = 1, Final residual = 4.0545e-06, No Iterations 7
DILUPBiCG:  Solving for Uz, Initial residual = 1, Final residual = 3.5914e-06, No Iterations 6
DICPCG:  Solving for p, Initial residual = 1, Final residual = 0.0993695, No Iterations 310
DICPCG:  Solving for p, Initial residual = 0.00401527, Final residual = 0.000297735, No Iterations 4
DICPCG:  Solving for p, Initial residual = 0.000575714, Final residual = 5.7565e-05, No Iterations 28
time step continuity errors : sum local = 0.0529599, global = -0.000354816, cumulative = -0.000354816
DILUPBiCG:  Solving for epsilon, Initial residual = 0.0486858, Final residual = 1.69599e-06, No Iterations 4
DILUPBiCG:  Solving for k, Initial residual = 1, Final residual = 8.97473e-07, No Iterations 6
ExecutionTime = 5.67 s  ClockTime = 6 s

Time = 2

DILUPBiCG:  Solving for Ux, Initial residual = 0.000118053, Final residual = 3.03328e-06, No Iterations 2
DILUPBiCG:  Solving for Uy, Initial residual = 5.13085e-05, Final residual = 8.81869e-06, No Iterations 1
DILUPBiCG:  Solving for Uz, Initial residual = 0.000108588, Final residual = 2.18322e-06, No Iterations 2
DICPCG:  Solving for p, Initial residual = 0.0134438, Final residual = 0.00131769, No Iterations 288
DICPCG:  Solving for p, Initial residual = 0.0313699, Final residual = 0.0031103, No Iterations 5
DICPCG:  Solving for p, Initial residual = 0.00477799, Final residual = 0.000460902, No Iterations 55
time step continuity errors : sum local = 0.0294006, global = 0.000255278, cumulative = -9.95379e-05
DILUPBiCG:  Solving for epsilon, Initial residual = 0.0134622, Final residual = 7.34397e-07, No Iterations 4
DILUPBiCG:  Solving for k, Initial residual = 0.514703, Final residual = 3.59513e-08, No Iterations 7
ExecutionTime = 9.35 s  ClockTime = 10 s

Time = 3

DILUPBiCG:  Solving for Ux, Initial residual = 1.66323e-05, Final residual = 2.88047e-06, No Iterations 1
DILUPBiCG:  Solving for Uy, Initial residual = 9.55826e-06, Final residual = 9.55826e-06, No Iterations 0
DILUPBiCG:  Solving for Uz, Initial residual = 2.59637e-05, Final residual = 8.07503e-06, No Iterations 1
DICPCG:  Solving for p, Initial residual = 0.0207754, Final residual = 0.00195192, No Iterations 288
DICPCG:  Solving for p, Initial residual = 0.0201603, Final residual = 0.00184704, No Iterations 4
DICPCG:  Solving for p, Initial residual = 0.002992, Final residual = 0.000277362, No Iterations 48
time step continuity errors : sum local = 0.044543, global = -0.000402145, cumulative = -0.000501683
DILUPBiCG:  Solving for epsilon, Initial residual = 0.0164507, Final residual = 1.29997e-06, No Iterations 4
DILUPBiCG:  Solving for k, Initial residual = 0.242096, Final residual = 4.38415e-07, No Iterations 6
ExecutionTime = 12.82 s  ClockTime = 13 s

Time = 4

DILUPBiCG:  Solving for Ux, Initial residual = 4.92085e-06, Final residual = 4.92085e-06, No Iterations 0
DILUPBiCG:  Solving for Uy, Initial residual = 3.84876e-06, Final residual = 3.84876e-06, No Iterations 0
DILUPBiCG:  Solving for Uz, Initial residual = 6.20251e-06, Final residual = 6.20251e-06, No Iterations 0
DICPCG:  Solving for p, Initial residual = 0.0265486, Final residual = 0.00252273, No Iterations 289
DICPCG:  Solving for p, Initial residual = 0.0100349, Final residual = 0.00085357, No Iterations 4
DICPCG:  Solving for p, Initial residual = 0.0014375, Final residual = 0.000139035, No Iterations 48
time step continuity errors : sum local = 0.0320399, global = -0.000905979, cumulative = -0.00140766
DILUPBiCG:  Solving for epsilon, Initial residual = 0.016424, Final residual = 6.09634e-06, No Iterations 3
DILUPBiCG:  Solving for k, Initial residual = 0.148475, Final residual = 6.51371e-07, No Iterations 5
ExecutionTime = 16.3 s  ClockTime = 17 s

Time = 5

DILUPBiCG:  Solving for Ux, Initial residual = 1.30724e-05, Final residual = 2.67535e-06, No Iterations 1
DILUPBiCG:  Solving for Uy, Initial residual = 1.85025e-06, Final residual = 1.85025e-06, No Iterations 0
DILUPBiCG:  Solving for Uz, Initial residual = 1.2111e-05, Final residual = 3.05837e-06, No Iterations 1
DICPCG:  Solving for p, Initial residual = 0.193357, Final residual = 0.0191871, No Iterations 64
DICPCG:  Solving for p, Initial residual = 0.0631273, Final residual = 0.006184, No Iterations 192
DICPCG:  Solving for p, Initial residual = 0.00334985, Final residual = 0.000317385, No Iterations 7
time step continuity errors : sum local = 0.0636617, global = 0.000138161, cumulative = -0.0012695
DILUPBiCG:  Solving for epsilon, Initial residual = 0.0147877, Final residual = 5.14091e-06, No Iterations 3
DILUPBiCG:  Solving for k, Initial residual = 0.109317, Final residual = 7.07934e-07, No Iterations 5
ExecutionTime = 19.21 s  ClockTime = 20 s

Time = 6

DILUPBiCG:  Solving for Ux, Initial residual = 1.84203e-05, Final residual = 4.16261e-06, No Iterations 1
DILUPBiCG:  Solving for Uy, Initial residual = 4.10814e-06, Final residual = 4.10814e-06, No Iterations 0
DILUPBiCG:  Solving for Uz, Initial residual = 1.40473e-05, Final residual = 4.42767e-06, No Iterations 1
DICPCG:  Solving for p, Initial residual = 0.0522804, Final residual = 0.00510073, No Iterations 68
DICPCG:  Solving for p, Initial residual = 0.0236602, Final residual = 0.00228853, No Iterations 29
DICPCG:  Solving for p, Initial residual = 0.00522848, Final residual = 0.000489451, No Iterations 250
time step continuity errors : sum local = 0.0369162, global = 0.000159289, cumulative = -0.00111021
DILUPBiCG:  Solving for epsilon, Initial residual = 0.0125771, Final residual = 4.48274e-06, No Iterations 3
DILUPBiCG:  Solving for k, Initial residual = 0.0867456, Final residual = 5.54595e-07, No Iterations 5
ExecutionTime = 22.83 s  ClockTime = 23 s

Time = 7

DILUPBiCG:  Solving for Ux, Initial residual = 1.67367e-05, Final residual = 6.84877e-06, No Iterations 1
DILUPBiCG:  Solving for Uy, Initial residual = 5.13174e-06, Final residual = 5.13174e-06, No Iterations 0
DILUPBiCG:  Solving for Uz, Initial residual = 8.02061e-06, Final residual = 8.02061e-06, No Iterations 0
DICPCG:  Solving for p, Initial residual = 0.0291293, Final residual = 0.00291259, No Iterations 76
DICPCG:  Solving for p, Initial residual = 0.0121552, Final residual = 0.00119306, No Iterations 246
DICPCG:  Solving for p, Initial residual = 0.00982898, Final residual = 0.00097293, No Iterations 20
time step continuity errors : sum local = 0.0338396, global = 9.28264e-05, cumulative = -0.00101739
DILUPBiCG:  Solving for epsilon, Initial residual = 0.0111609, Final residual = 4.12907e-06, No Iterations 3
DILUPBiCG:  Solving for k, Initial residual = 0.0725945, Final residual = 4.80688e-08, No Iterations 6
ExecutionTime = 26.46 s  ClockTime = 27 s

Time = 8

DILUPBiCG:  Solving for Ux, Initial residual = 1.37622e-05, Final residual = 2.65554e-06, No Iterations 1
DILUPBiCG:  Solving for Uy, Initial residual = 4.60703e-06, Final residual = 4.60703e-06, No Iterations 0
DILUPBiCG:  Solving for Uz, Initial residual = 1.32796e-05, Final residual = 3.06887e-06, No Iterations 1
DICPCG:  Solving for p, Initial residual = 0.0324048, Final residual = 0.00314138, No Iterations 276
DICPCG:  Solving for p, Initial residual = 0.0231343, Final residual = 0.00223527, No Iterations 12
DICPCG:  Solving for p, Initial residual = 0.00385662, Final residual = 0.00037237, No Iterations 37
time step continuity errors : sum local = 0.0148759, global = -0.000149586, cumulative = -0.00116697
DILUPBiCG:  Solving for epsilon, Initial residual = 0.010803, Final residual = 5.77296e-06, No Iterations 3
DILUPBiCG:  Solving for k, Initial residual = 0.062943, Final residual = 3.5065e-08, No Iterations 6
ExecutionTime = 29.88 s  ClockTime = 30 s

Time = 9

DILUPBiCG:  Solving for Ux, Initial residual = 5.28714e-06, Final residual = 5.28714e-06, No Iterations 0
DILUPBiCG:  Solving for Uy, Initial residual = 2.84699e-06, Final residual = 2.84699e-06, No Iterations 0
DILUPBiCG:  Solving for Uz, Initial residual = 6.71109e-06, Final residual = 6.71109e-06, No Iterations 0
DICPCG:  Solving for p, Initial residual = 0.0462326, Final residual = 0.00460533, No Iterations 279
DICPCG:  Solving for p, Initial residual = 0.0113724, Final residual = 0.00108589, No Iterations 13
DICPCG:  Solving for p, Initial residual = 0.00184668, Final residual = 0.00017801, No Iterations 46
time step continuity errors : sum local = 0.0138492, global = -0.000112482, cumulative = -0.00127945
DILUPBiCG:  Solving for epsilon, Initial residual = 0.0103497, Final residual = 7.85256e-06, No Iterations 3
DILUPBiCG:  Solving for k, Initial residual = 0.0561855, Final residual = 3.07643e-08, No Iterations 6
ExecutionTime = 33.28 s  ClockTime = 34 s

Time = 10

DILUPBiCG:  Solving for Ux, Initial residual = 4.26696e-06, Final residual = 4.26696e-06, No Iterations 0
DILUPBiCG:  Solving for Uy, Initial residual = 1.0138e-06, Final residual = 1.0138e-06, No Iterations 0
DILUPBiCG:  Solving for Uz, Initial residual = 4.61242e-06, Final residual = 4.61242e-06, No Iterations 0
DICPCG:  Solving for p, Initial residual = 0.203593, Final residual = 0.0198333, No Iterations 282
DICPCG:  Solving for p, Initial residual = 0.00789049, Final residual = 0.000765311, No Iterations 10
DICPCG:  Solving for p, Initial residual = 0.00123929, Final residual = 0.000117919, No Iterations 57
time step continuity errors : sum local = 0.00978283, global = -5.59857e-05, cumulative = -0.00133544
DILUPBiCG:  Solving for epsilon, Initial residual = 0.00994117, Final residual = 3.81493e-06, No Iterations 3
DILUPBiCG:  Solving for k, Initial residual = 0.0509429, Final residual = 8.83984e-07, No Iterations 5
ExecutionTime = 36.71 s  ClockTime = 37 s

Time = 11

DILUPBiCG:  Solving for Ux, Initial residual = 5.139e-06, Final residual = 5.139e-06, No Iterations 0
DILUPBiCG:  Solving for Uy, Initial residual = 1.70327e-06, Final residual = 1.70327e-06, No Iterations 0
DILUPBiCG:  Solving for Uz, Initial residual = 4.29493e-06, Final residual = 4.29493e-06, No Iterations 0
DICPCG:  Solving for p, Initial residual = 0.0391148, Final residual = 0.00382212, No Iterations 62
DICPCG:  Solving for p, Initial residual = 0.0144639, Final residual = 0.00142496, No Iterations 255
DICPCG:  Solving for p, Initial residual = 0.00268694, Final residual = 0.000266089, No Iterations 11
time step continuity errors : sum local = 0.0168791, global = -0.000157495, cumulative = -0.00149293
DILUPBiCG:  Solving for epsilon, Initial residual = 0.00969707, Final residual = 4.52388e-06, No Iterations 3
DILUPBiCG:  Solving for k, Initial residual = 0.0466836, Final residual = 5.83175e-07, No Iterations 5
ExecutionTime = 40 s  ClockTime = 40 s

Time = 12

DILUPBiCG:  Solving for Ux, Initial residual = 5.73224e-06, Final residual = 5.73224e-06, No Iterations 0
DILUPBiCG:  Solving for Uy, Initial residual = 2.24172e-06, Final residual = 2.24172e-06, No Iterations 0
DILUPBiCG:  Solving for Uz, Initial residual = 4.42174e-06, Final residual = 4.42174e-06, No Iterations 0
DICPCG:  Solving for p, Initial residual = 0.023513, Final residual = 0.00230738, No Iterations 61
DICPCG:  Solving for p, Initial residual = 0.00733661, Final residual = 0.000703843, No Iterations 69
DICPCG:  Solving for p, Initial residual = 0.00174848, Final residual = 0.000168199, No Iterations 250
time step continuity errors : sum local = 0.00601027, global = -7.66899e-06, cumulative = -0.0015006
DILUPBiCG:  Solving for epsilon, Initial residual = 0.00942535, Final residual = 4.51547e-06, No Iterations 3
DILUPBiCG:  Solving for k, Initial residual = 0.0431977, Final residual = 4.42281e-07, No Iterations 5
ExecutionTime = 43.66 s  ClockTime = 44 s

Time = 13

DILUPBiCG:  Solving for Ux, Initial residual = 5.39079e-06, Final residual = 5.39079e-06, No Iterations 0
DILUPBiCG:  Solving for Uy, Initial residual = 2.03955e-06, Final residual = 2.03955e-06, No Iterations 0
DILUPBiCG:  Solving for Uz, Initial residual = 4.57025e-06, Final residual = 4.57025e-06, No Iterations 0
DICPCG:  Solving for p, Initial residual = 0.0237773, Final residual = 0.00235848, No Iterations 95
DICPCG:  Solving for p, Initial residual = 0.00828373, Final residual = 0.000818108, No Iterations 254
DICPCG:  Solving for p, Initial residual = 0.045355, Final residual = 0.00438502, No Iterations 12
time step continuity errors : sum local = 0.0120034, global = -0.000260921, cumulative = -0.00176152
DILUPBiCG:  Solving for epsilon, Initial residual = 0.00914193, Final residual = 3.93768e-06, No Iterations 3
DILUPBiCG:  Solving for k, Initial residual = 0.0403247, Final residual = 4.41619e-07, No Iterations 5
ExecutionTime = 47.19 s  ClockTime = 48 s

Time = 14

DILUPBiCG:  Solving for Ux, Initial residual = 4.28605e-06, Final residual = 4.28605e-06, No Iterations 0
DILUPBiCG:  Solving for Uy, Initial residual = 1.42281e-06, Final residual = 1.42281e-06, No Iterations 0
DILUPBiCG:  Solving for Uz, Initial residual = 3.98647e-06, Final residual = 3.98647e-06, No Iterations 0
DICPCG:  Solving for p, Initial residual = 0.0295384, Final residual = 0.00272561, No Iterations 280
DICPCG:  Solving for p, Initial residual = 0.0146231, Final residual = 0.00145117, No Iterations 16
DICPCG:  Solving for p, Initial residual = 0.00247591, Final residual = 0.000232716, No Iterations 50
time step continuity errors : sum local = 0.00528248, global = 5.56943e-05, cumulative = -0.00170583
DILUPBiCG:  Solving for epsilon, Initial residual = 0.00890489, Final residual = 3.75576e-06, No Iterations 3
DILUPBiCG:  Solving for k, Initial residual = 0.0379465, Final residual = 5.48159e-07, No Iterations 5
ExecutionTime = 50.62 s  ClockTime = 51 s

Time = 15

DILUPBiCG:  Solving for Ux, Initial residual = 3.24015e-06, Final residual = 3.24015e-06, No Iterations 0
DILUPBiCG:  Solving for Uy, Initial residual = 7.52166e-07, Final residual = 7.52166e-07, No Iterations 0
DILUPBiCG:  Solving for Uz, Initial residual = 2.99245e-06, Final residual = 2.99245e-06, No Iterations 0
DICPCG:  Solving for p, Initial residual = 0.0483453, Final residual = 0.00478347, No Iterations 282
DICPCG:  Solving for p, Initial residual = 0.00945744, Final residual = 0.000933731, No Iterations 16
DICPCG:  Solving for p, Initial residual = 0.00159213, Final residual = 0.000157077, No Iterations 50
time step continuity errors : sum local = 0.00470743, global = 3.99061e-05, cumulative = -0.00166592
DILUPBiCG:  Solving for epsilon, Initial residual = 0.0087119, Final residual = 3.68159e-06, No Iterations 3
DILUPBiCG:  Solving for k, Initial residual = 0.0359333, Final residual = 8.83115e-07, No Iterations 5
ExecutionTime = 54.05 s  ClockTime = 54 s

Time = 16

DILUPBiCG:  Solving for Ux, Initial residual = 2.84637e-06, Final residual = 2.84637e-06, No Iterations 0
DILUPBiCG:  Solving for Uy, Initial residual = 5.28084e-07, Final residual = 5.28084e-07, No Iterations 0
DILUPBiCG:  Solving for Uz, Initial residual = 2.47344e-06, Final residual = 2.47344e-06, No Iterations 0
DICPCG:  Solving for p, Initial residual = 0.132818, Final residual = 0.0130986, No Iterations 275
DICPCG:  Solving for p, Initial residual = 0.00706846, Final residual = 0.000704094, No Iterations 16
DICPCG:  Solving for p, Initial residual = 0.00123784, Final residual = 0.000119237, No Iterations 59
time step continuity errors : sum local = 0.00309835, global = 1.88197e-05, cumulative = -0.0016471
DILUPBiCG:  Solving for epsilon, Initial residual = 0.00857086, Final residual = 3.72995e-06, No Iterations 3
DILUPBiCG:  Solving for k, Initial residual = 0.0341743, Final residual = 1.968e-08, No Iterations 6
ExecutionTime = 57.52 s  ClockTime = 58 s

Time = 17

DILUPBiCG:  Solving for Ux, Initial residual = 2.65488e-06, Final residual = 2.65488e-06, No Iterations 0
DILUPBiCG:  Solving for Uy, Initial residual = 7.69799e-07, Final residual = 7.69799e-07, No Iterations 0
DILUPBiCG:  Solving for Uz, Initial residual = 2.39734e-06, Final residual = 2.39734e-06, No Iterations 0
DICPCG:  Solving for p, Initial residual = 0.036424, Final residual = 0.00357593, No Iterations 57
DICPCG:  Solving for p, Initial residual = 0.0104458, Final residual = 0.00101437, No Iterations 256
DICPCG:  Solving for p, Initial residual = 0.00229806, Final residual = 0.000226681, No Iterations 23
time step continuity errors : sum local = 0.00347836, global = 4.83101e-05, cumulative = -0.00159879
DILUPBiCG:  Solving for epsilon, Initial residual = 0.00847219, Final residual = 3.95259e-06, No Iterations 3
DILUPBiCG:  Solving for k, Initial residual = 0.0325917, Final residual = 1.79822e-08, No Iterations 6
ExecutionTime = 60.88 s  ClockTime = 61 s

Time = 18

DILUPBiCG:  Solving for Ux, Initial residual = 2.37211e-06, Final residual = 2.37211e-06, No Iterations 0
DILUPBiCG:  Solving for Uy, Initial residual = 8.26965e-07, Final residual = 8.26965e-07, No Iterations 0
DILUPBiCG:  Solving for Uz, Initial residual = 2.4248e-06, Final residual = 2.4248e-06, No Iterations 0
DICPCG:  Solving for p, Initial residual = 0.0297521, Final residual = 0.00292046, No Iterations 90
DICPCG:  Solving for p, Initial residual = 0.00857017, Final residual = 0.00082406, No Iterations 248
DICPCG:  Solving for p, Initial residual = 0.0116076, Final residual = 0.00115923, No Iterations 19
time step continuity errors : sum local = 0.00356716, global = -5.57518e-05, cumulative = -0.00165455
DILUPBiCG:  Solving for epsilon, Initial residual = 0.00840045, Final residual = 4.37071e-06, No Iterations 3
DILUPBiCG:  Solving for k, Initial residual = 0.0311276, Final residual = 1.63718e-08, No Iterations 6
ExecutionTime = 64.41 s  ClockTime = 65 s

Time = 19

DILUPBiCG:  Solving for Ux, Initial residual = 1.97218e-06, Final residual = 1.97218e-06, No Iterations 0
DILUPBiCG:  Solving for Uy, Initial residual = 6.9514e-07, Final residual = 6.9514e-07, No Iterations 0
DILUPBiCG:  Solving for Uz, Initial residual = 2.28634e-06, Final residual = 2.28634e-06, No Iterations 0
DICPCG:  Solving for p, Initial residual = 0.0354468, Final residual = 0.00336147, No Iterations 278
DICPCG:  Solving for p, Initial residual = 0.0119803, Final residual = 0.00117, No Iterations 22
DICPCG:  Solving for p, Initial residual = 0.00218175, Final residual = 0.000208532, No Iterations 43
time step continuity errors : sum local = 0.00216362, global = -2.44733e-05, cumulative = -0.00167902
DILUPBiCG:  Solving for epsilon, Initial residual = 0.00834353, Final residual = 4.7259e-06, No Iterations 3
DILUPBiCG:  Solving for k, Initial residual = 0.0297622, Final residual = 1.47599e-08, No Iterations 6
ExecutionTime = 67.84 s  ClockTime = 68 s

Time = 20

DILUPBiCG:  Solving for Ux, Initial residual = 1.72812e-06, Final residual = 1.72812e-06, No Iterations 0
DILUPBiCG:  Solving for Uy, Initial residual = 4.72966e-07, Final residual = 4.72966e-07, No Iterations 0
DILUPBiCG:  Solving for Uz, Initial residual = 2.10063e-06, Final residual = 2.10063e-06, No Iterations 0
DICPCG:  Solving for p, Initial residual = 0.0620669, Final residual = 0.00583256, No Iterations 281
DICPCG:  Solving for p, Initial residual = 0.00786056, Final residual = 0.000779524, No Iterations 26
DICPCG:  Solving for p, Initial residual = 0.00147764, Final residual = 0.000133242, No Iterations 49
time step continuity errors : sum local = 0.00204713, global = -9.98887e-06, cumulative = -0.00168901
DILUPBiCG:  Solving for epsilon, Initial residual = 0.00827786, Final residual = 4.80443e-06, No Iterations 3
DILUPBiCG:  Solving for k, Initial residual = 0.0284868, Final residual = 1.27536e-08, No Iterations 6
ExecutionTime = 71.33 s  ClockTime = 72 s

forces porousforces write:
    sum of forces:
        pressure : (0 0 0)
        viscous  : (0 0 0)
        porous   : (82225.8 1.55213e-13 71357)
    sum of moments:
        pressure : (0 0 0)
        viscous  : (0 0 0)
        porous   : (64629 5784.14 -71875.4)

volFieldValue volFieldValue_0 write:
    volIntegrate(cz_solid_0) of U = (1.72166e-09 -4.90981e-09 -4.16267e-09)

surfaceFieldValue massFlowAtFilter_0 write:
    sum(fz_solid_0) of phi = 6.77003e-05

volFieldValue volFieldValue_1 write:
    volIntegrate(cz_solid_1) of U = (3.91317e-10 -4.44144e-09 -3.8168e-09)

surfaceFieldValue massFlowAtFilter_1 write:
    sum(fz_solid_1) of phi = 3.57216e-05

volFieldValue volFieldValue_2 write:
    volIntegrate(cz_solid_2) of U = (-7.02221e-10 -4.63359e-09 -3.24651e-09)

surfaceFieldValue massFlowAtFilter_2 write:
    sum(fz_solid_2) of phi = -6.10286e-05

volFieldValue volFieldValue_3 write:
    volIntegrate(cz_solid_3) of U = (-1.56223e-09 -4.49443e-09 -2.55212e-09)

surfaceFieldValue massFlowAtFilter_3 write:
    sum(fz_solid_3) of phi = 3.02643e-06

volFieldValue volFieldValue_4 write:
    volIntegrate(cz_solid_4) of U = (-2.29859e-09 -4.21051e-09 -1.70403e-09)

surfaceFieldValue massFlowAtFilter_4 write:
    sum(fz_solid_4) of phi = 1.09114e-05

volFieldValue volFieldValue_5 write:
    volIntegrate(cz_solid_5) of U = (-2.94854e-09 -4.15409e-09 -8.58927e-10)

surfaceFieldValue massFlowAtFilter_5 write:
    sum(fz_solid_5) of phi = -0.000101512

volFieldValue volFieldValue_6 write:
    volIntegrate(cz_solid_6) of U = (-3.56474e-09 -4.42293e-09 1.95907e-10)

surfaceFieldValue massFlowAtFilter_6 write:
    sum(fz_solid_6) of phi = -6.38346e-05

volFieldValue volFieldValue_7 write:
    volIntegrate(cz_solid_7) of U = (-3.87768e-09 -4.49414e-09 1.52816e-09)

surfaceFieldValue massFlowAtFilter_7 write:
    sum(fz_solid_7) of phi = 2.55751e-05

volFieldValue volFieldValue_8 write:
    volIntegrate(cz_solid_8) of U = (-3.73683e-09 -4.6449e-09 2.98809e-09)

surfaceFieldValue massFlowAtFilter_8 write:
    sum(fz_solid_8) of phi = -1.17013e-05

volFieldValue volFieldValue_9 write:
    volIntegrate(cz_solid_9) of U = (-3.01276e-09 -4.74479e-09 4.56466e-09)

surfaceFieldValue massFlowAtFilter_9 write:
    sum(fz_solid_9) of phi = 3.89037e-06

volFieldValue volFieldValue_10 write:
    volIntegrate(cz_solid_10) of U = (-1.69283e-09 -4.57561e-09 5.91253e-09)

surfaceFieldValue massFlowAtFilter_10 write:
    sum(fz_solid_10) of phi = -6.46364e-05

volFieldValue volFieldValue_11 write:
    volIntegrate(cz_solid_11) of U = (1.29908e-10 -4.34987e-09 6.86472e-09)

surfaceFieldValue massFlowAtFilter_11 write:
    sum(fz_solid_11) of phi = 1.07809e-05

volFieldValue volFieldValue_12 write:
    volIntegrate(cz_solid_12) of U = (2.45193e-09 -4.37341e-09 7.15069e-09)

surfaceFieldValue massFlowAtFilter_12 write:
    sum(fz_solid_12) of phi = 8.21087e-06

volFieldValue volFieldValue_13 write:
    volIntegrate(cz_solid_13) of U = (4.89909e-09 -4.97836e-09 6.53096e-09)

surfaceFieldValue massFlowAtFilter_13 write:
    sum(fz_solid_13) of phi = 8.56921e-05

volFieldValue volFieldValue_14 write:
    volIntegrate(cz_solid_14) of U = (6.89451e-09 -5.82123e-09 4.9583e-09)

surfaceFieldValue massFlowAtFilter_14 write:
    sum(fz_solid_14) of phi = 0.000140784

volFieldValue volFieldValue_15 write:
    volIntegrate(cz_solid_15) of U = (7.96318e-09 -6.55599e-09 2.50608e-09)

surfaceFieldValue massFlowAtFilter_15 write:
    sum(fz_solid_15) of phi = 0.000133267

volFieldValue volFieldValue_16 write:
    volIntegrate(cz_solid_16) of U = (7.7867e-09 -6.41158e-09 -4.84161e-12)

surfaceFieldValue massFlowAtFilter_16 write:
    sum(fz_solid_16) of phi = 5.78862e-05

volFieldValue volFieldValue_17 write:
    volIntegrate(cz_solid_17) of U = (6.66617e-09 -6.13391e-09 -2.09279e-09)

surfaceFieldValue massFlowAtFilter_17 write:
    sum(fz_solid_17) of phi = -1.85994e-05

volFieldValue volFieldValue_18 write:
    volIntegrate(cz_solid_18) of U = (5.0897e-09 -5.48326e-09 -3.46631e-09)

surfaceFieldValue massFlowAtFilter_18 write:
    sum(fz_solid_18) of phi = 9.11767e-05

volFieldValue volFieldValue_19 write:
    volIntegrate(cz_solid_19) of U = (3.33287e-09 -5.06052e-09 -4.04812e-09)

surfaceFieldValue massFlowAtFilter_19 write:
    sum(fz_solid_19) of phi = 9.06577e-06

volFieldValue volFieldValue_20 write:
    volIntegrate(cz_solid_20) of U = (1.42738e-09 -1.13651e-08 -2.91714e-09)

surfaceFieldValue massFlowAtFilter_20 write:
    sum(fz_solid_20) of phi = 2.30895e-05

volFieldValue volFieldValue_21 write:
    volIntegrate(cz_solid_21) of U = (4.00928e-10 -1.03427e-08 -2.667e-09)

surfaceFieldValue massFlowAtFilter_21 write:
    sum(fz_solid_21) of phi = 2.76883e-05

volFieldValue volFieldValue_22 write:
    volIntegrate(cz_solid_22) of U = (-4.1604e-10 -1.01027e-08 -2.24957e-09)

surfaceFieldValue massFlowAtFilter_22 write:
    sum(fz_solid_22) of phi = -4.85193e-05

volFieldValue volFieldValue_23 write:
    volIntegrate(cz_solid_23) of U = (-1.0299e-09 -9.71943e-09 -1.73867e-09)

surfaceFieldValue massFlowAtFilter_23 write:
    sum(fz_solid_23) of phi = 2.30241e-05

volFieldValue volFieldValue_24 write:
    volIntegrate(cz_solid_24) of U = (-1.56162e-09 -9.00117e-09 -1.12202e-09)

surfaceFieldValue massFlowAtFilter_24 write:
    sum(fz_solid_24) of phi = 1.05015e-05

volFieldValue volFieldValue_25 write:
    volIntegrate(cz_solid_25) of U = (-2.03715e-09 -8.46269e-09 -5.06098e-10)

surfaceFieldValue massFlowAtFilter_25 write:
    sum(fz_solid_25) of phi = 2.67388e-06

volFieldValue volFieldValue_26 write:
    volIntegrate(cz_solid_26) of U = (-2.49233e-09 -8.94536e-09 2.52801e-10)

surfaceFieldValue massFlowAtFilter_26 write:
    sum(fz_solid_26) of phi = 1.60551e-06

volFieldValue volFieldValue_27 write:
    volIntegrate(cz_solid_27) of U = (-2.71033e-09 -8.94797e-09 1.22749e-09)

surfaceFieldValue massFlowAtFilter_27 write:
    sum(fz_solid_27) of phi = 3.23968e-05

volFieldValue volFieldValue_28 write:
    volIntegrate(cz_solid_28) of U = (-2.5942e-09 -9.6701e-09 2.30316e-09)

surfaceFieldValue massFlowAtFilter_28 write:
    sum(fz_solid_28) of phi = 4.51053e-05

volFieldValue volFieldValue_29 write:
    volIntegrate(cz_solid_29) of U = (-2.0013e-09 -1.04153e-08 3.44809e-09)

surfaceFieldValue massFlowAtFilter_29 write:
    sum(fz_solid_29) of phi = 1.83666e-05

volFieldValue volFieldValue_30 write:
    volIntegrate(cz_solid_30) of U = (-9.96968e-10 -1.16714e-08 4.37804e-09)

surfaceFieldValue massFlowAtFilter_30 write:
    sum(fz_solid_30) of phi = -1.01629e-05

volFieldValue volFieldValue_31 write:
    volIntegrate(cz_solid_31) of U = (3.76261e-10 -1.35447e-08 4.98685e-09)

surfaceFieldValue massFlowAtFilter_31 write:
    sum(fz_solid_31) of phi = -2.76657e-05

volFieldValue volFieldValue_32 write:
    volIntegrate(cz_solid_32) of U = (2.05419e-09 -1.47558e-08 5.10703e-09)

surfaceFieldValue massFlowAtFilter_32 write:
    sum(fz_solid_32) of phi = -9.26914e-06

volFieldValue volFieldValue_33 write:
    volIntegrate(cz_solid_33) of U = (3.79113e-09 -1.62872e-08 4.63821e-09)

surfaceFieldValue massFlowAtFilter_33 write:
    sum(fz_solid_33) of phi = 7.03324e-05

volFieldValue volFieldValue_34 write:
    volIntegrate(cz_solid_34) of U = (5.14815e-09 -1.73121e-08 3.64192e-09)

surfaceFieldValue massFlowAtFilter_34 write:
    sum(fz_solid_34) of phi = 5.29908e-05

volFieldValue volFieldValue_35 write:
    volIntegrate(cz_solid_35) of U = (5.93792e-09 -1.71461e-08 2.05064e-09)

surfaceFieldValue massFlowAtFilter_35 write:
    sum(fz_solid_35) of phi = 5.1973e-05

volFieldValue volFieldValue_36 write:
    volIntegrate(cz_solid_36) of U = (5.92574e-09 -1.5818e-08 3.71116e-10)

surfaceFieldValue massFlowAtFilter_36 write:
    sum(fz_solid_36) of phi = 3.55469e-05

volFieldValue volFieldValue_37 write:
    volIntegrate(cz_solid_37) of U = (5.20747e-09 -1.41615e-08 -1.16408e-09)

surfaceFieldValue massFlowAtFilter_37 write:
    sum(fz_solid_37) of phi = 5.82814e-06

volFieldValue volFieldValue_38 write:
    volIntegrate(cz_solid_38) of U = (4.08745e-09 -1.32868e-08 -2.28584e-09)

surfaceFieldValue massFlowAtFilter_38 write:
    sum(fz_solid_38) of phi = -1.74951e-05

volFieldValue volFieldValue_39 write:
    volIntegrate(cz_solid_39) of U = (2.70399e-09 -1.18716e-08 -2.80297e-09)

surfaceFieldValue massFlowAtFilter_39 write:
    sum(fz_solid_39) of phi = 2.98564e-05

volFieldValue volFieldValue_40 write:
    volIntegrate(cz_solid_40) of U = (8.91822e-10 -1.04418e-08 -1.07193e-09)

surfaceFieldValue massFlowAtFilter_40 write:
    sum(fz_solid_40) of phi = 2.93204e-05

volFieldValue volFieldValue_41 write:
    volIntegrate(cz_solid_41) of U = (3.46856e-10 -9.16162e-09 -1.00127e-09)

surfaceFieldValue massFlowAtFilter_41 write:
    sum(fz_solid_41) of phi = 1.30838e-05

volFieldValue volFieldValue_42 write:
    volIntegrate(cz_solid_42) of U = (-6.08471e-11 -8.90131e-09 -8.42166e-10)

surfaceFieldValue massFlowAtFilter_42 write:
    sum(fz_solid_42) of phi = 8.16553e-07

volFieldValue volFieldValue_43 write:
    volIntegrate(cz_solid_43) of U = (-3.78386e-10 -8.40268e-09 -6.30131e-10)

surfaceFieldValue massFlowAtFilter_43 write:
    sum(fz_solid_43) of phi = 1.63231e-05

volFieldValue volFieldValue_44 write:
    volIntegrate(cz_solid_44) of U = (-6.954e-10 -7.7188e-09 -3.67634e-10)

surfaceFieldValue massFlowAtFilter_44 write:
    sum(fz_solid_44) of phi = 3.69259e-06

volFieldValue volFieldValue_45 write:
    volIntegrate(cz_solid_45) of U = (-1.02098e-09 -7.36373e-09 -6.88693e-11)

surfaceFieldValue massFlowAtFilter_45 write:
    sum(fz_solid_45) of phi = 4.71176e-06

volFieldValue volFieldValue_46 write:
    volIntegrate(cz_solid_46) of U = (-1.34069e-09 -7.62742e-09 3.32053e-10)

surfaceFieldValue massFlowAtFilter_46 write:
    sum(fz_solid_46) of phi = -1.15475e-05

volFieldValue volFieldValue_47 write:
    volIntegrate(cz_solid_47) of U = (-1.49412e-09 -7.6042e-09 9.51536e-10)

surfaceFieldValue massFlowAtFilter_47 write:
    sum(fz_solid_47) of phi = 3.20939e-05

volFieldValue volFieldValue_48 write:
    volIntegrate(cz_solid_48) of U = (-1.40394e-09 -7.95481e-09 1.63143e-09)

surfaceFieldValue massFlowAtFilter_48 write:
    sum(fz_solid_48) of phi = -6.81977e-06

volFieldValue volFieldValue_49 write:
    volIntegrate(cz_solid_49) of U = (-9.67727e-10 -8.38227e-09 2.34965e-09)

surfaceFieldValue massFlowAtFilter_49 write:
    sum(fz_solid_49) of phi = -6.1599e-06

volFieldValue volFieldValue_50 write:
    volIntegrate(cz_solid_50) of U = (-2.07535e-10 -9.15871e-09 2.92832e-09)

surfaceFieldValue massFlowAtFilter_50 write:
    sum(fz_solid_50) of phi = 9.64822e-06

volFieldValue volFieldValue_51 write:
    volIntegrate(cz_solid_51) of U = (7.17648e-10 -1.03981e-08 3.24751e-09)

surfaceFieldValue massFlowAtFilter_51 write:
    sum(fz_solid_51) of phi = -6.5483e-06

volFieldValue volFieldValue_52 write:
    volIntegrate(cz_solid_52) of U = (1.9053e-09 -1.15238e-08 3.2962e-09)

surfaceFieldValue massFlowAtFilter_52 write:
    sum(fz_solid_52) of phi = 3.28077e-06

volFieldValue volFieldValue_53 write:
    volIntegrate(cz_solid_53) of U = (3.13161e-09 -1.34938e-08 3.08706e-09)

surfaceFieldValue massFlowAtFilter_53 write:
    sum(fz_solid_53) of phi = 1.85239e-05

volFieldValue volFieldValue_54 write:
    volIntegrate(cz_solid_54) of U = (4.17896e-09 -1.61291e-08 2.73019e-09)

surfaceFieldValue massFlowAtFilter_54 write:
    sum(fz_solid_54) of phi = 3.98437e-05

volFieldValue volFieldValue_55 write:
    volIntegrate(cz_solid_55) of U = (4.86616e-09 -1.75923e-08 1.98028e-09)

surfaceFieldValue massFlowAtFilter_55 write:
    sum(fz_solid_55) of phi = 3.06268e-05

volFieldValue volFieldValue_56 write:
    volIntegrate(cz_solid_56) of U = (4.57135e-09 -1.72045e-08 1.22307e-09)

surfaceFieldValue massFlowAtFilter_56 write:
    sum(fz_solid_56) of phi = -1.60796e-05

volFieldValue volFieldValue_57 write:
    volIntegrate(cz_solid_57) of U = (3.50745e-09 -1.49029e-08 3.68644e-10)

surfaceFieldValue massFlowAtFilter_57 write:
    sum(fz_solid_57) of phi = 3.91275e-06

volFieldValue volFieldValue_58 write:
    volIntegrate(cz_solid_58) of U = (2.47905e-09 -1.28938e-08 -5.85674e-10)

surfaceFieldValue massFlowAtFilter_58 write:
    sum(fz_solid_58) of phi = 5.79931e-06

volFieldValue volFieldValue_59 write:
    volIntegrate(cz_solid_59) of U = (1.62348e-09 -1.10563e-08 -9.41519e-10)

surfaceFieldValue massFlowAtFilter_59 write:
    sum(fz_solid_59) of phi = 4.77992e-06

volFieldValue volFieldValue_60 write:
    volIntegrate(cz_solid_60) of U = (-8.76239e-11 -7.32316e-09 5.83929e-10)

surfaceFieldValue massFlowAtFilter_60 write:
    sum(fz_solid_60) of phi = -8.54079e-06

volFieldValue volFieldValue_61 write:
    volIntegrate(cz_solid_61) of U = (2.31905e-11 -6.22288e-09 3.59153e-10)

surfaceFieldValue massFlowAtFilter_61 write:
    sum(fz_solid_61) of phi = -1.05076e-05

volFieldValue volFieldValue_62 write:
    volIntegrate(cz_solid_62) of U = (1.75149e-11 -5.89339e-09 1.98702e-10)

surfaceFieldValue massFlowAtFilter_62 write:
    sum(fz_solid_62) of phi = -1.0754e-05

volFieldValue volFieldValue_63 write:
    volIntegrate(cz_solid_63) of U = (-1.121e-10 -5.50288e-09 1.30494e-10)

surfaceFieldValue massFlowAtFilter_63 write:
    sum(fz_solid_63) of phi = -1.63145e-05

volFieldValue volFieldValue_64 write:
    volIntegrate(cz_solid_64) of U = (-3.09917e-10 -5.00706e-09 1.17986e-10)

surfaceFieldValue massFlowAtFilter_64 write:
    sum(fz_solid_64) of phi = -1.91755e-05

volFieldValue volFieldValue_65 write:
    volIntegrate(cz_solid_65) of U = (-5.68915e-10 -4.76934e-09 2.2279e-10)

surfaceFieldValue massFlowAtFilter_65 write:
    sum(fz_solid_65) of phi = -2.45071e-05

volFieldValue volFieldValue_66 write:
    volIntegrate(cz_solid_66) of U = (-8.23125e-10 -5.02161e-09 4.39727e-10)

surfaceFieldValue massFlowAtFilter_66 write:
    sum(fz_solid_66) of phi = -2.04261e-05

volFieldValue volFieldValue_67 write:
    volIntegrate(cz_solid_67) of U = (-9.38342e-10 -5.00402e-09 8.97531e-10)

surfaceFieldValue massFlowAtFilter_67 write:
    sum(fz_solid_67) of phi = -1.29551e-05

volFieldValue volFieldValue_68 write:
    volIntegrate(cz_solid_68) of U = (-8.72549e-10 -5.29563e-09 1.42447e-09)

surfaceFieldValue massFlowAtFilter_68 write:
    sum(fz_solid_68) of phi = -2.13157e-05

volFieldValue volFieldValue_69 write:
    volIntegrate(cz_solid_69) of U = (-5.00766e-10 -5.70376e-09 2.05235e-09)

surfaceFieldValue massFlowAtFilter_69 write:
    sum(fz_solid_69) of phi = -1.3145e-05

volFieldValue volFieldValue_70 write:
    volIntegrate(cz_solid_70) of U = (1.94098e-10 -6.30811e-09 2.61843e-09)

surfaceFieldValue massFlowAtFilter_70 write:
    sum(fz_solid_70) of phi = -2.71469e-05

volFieldValue volFieldValue_71 write:
    volIntegrate(cz_solid_71) of U = (1.12741e-09 -7.46546e-09 2.99652e-09)

surfaceFieldValue massFlowAtFilter_71 write:
    sum(fz_solid_71) of phi = -1.92404e-05

volFieldValue volFieldValue_72 write:
    volIntegrate(cz_solid_72) of U = (2.50883e-09 -9.01478e-09 3.1236e-09)

surfaceFieldValue massFlowAtFilter_72 write:
    sum(fz_solid_72) of phi = -3.60897e-05

volFieldValue volFieldValue_73 write:
    volIntegrate(cz_solid_73) of U = (4.21851e-09 -1.21323e-08 3.00877e-09)

surfaceFieldValue massFlowAtFilter_73 write:
    sum(fz_solid_73) of phi = -3.0526e-06

volFieldValue volFieldValue_74 write:
    volIntegrate(cz_solid_74) of U = (6.21697e-09 -1.73727e-08 2.77522e-09)

surfaceFieldValue massFlowAtFilter_74 write:
    sum(fz_solid_74) of phi = 4.98982e-05

volFieldValue volFieldValue_75 write:
    volIntegrate(cz_solid_75) of U = (8.67539e-09 -2.44804e-08 1.77927e-09)

surfaceFieldValue massFlowAtFilter_75 write:
    sum(fz_solid_75) of phi = 8.54464e-05

volFieldValue volFieldValue_76 write:
    volIntegrate(cz_solid_76) of U = (9.63231e-09 -3.47239e-08 1.25917e-09)

surfaceFieldValue massFlowAtFilter_76 write:
    sum(fz_solid_76) of phi = -2.03929e-05

volFieldValue volFieldValue_77 write:
    volIntegrate(cz_solid_77) of U = (3.49474e-09 -2.96077e-08 7.59641e-09)

surfaceFieldValue massFlowAtFilter_77 write:
    sum(fz_solid_77) of phi = 4.08379e-05

volFieldValue volFieldValue_78 write:
    volIntegrate(cz_solid_78) of U = (-2.28775e-09 -1.14987e-08 1.61113e-09)

surfaceFieldValue massFlowAtFilter_78 write:
    sum(fz_solid_78) of phi = -4.35551e-05

volFieldValue volFieldValue_79 write:
    volIntegrate(cz_solid_79) of U = (-5.3929e-10 -7.9593e-09 8.92265e-10)

surfaceFieldValue massFlowAtFilter_79 write:
    sum(fz_solid_79) of phi = -2.60733e-05

volFieldValue volFieldValue_80 write:
    volIntegrate(cz_solid_80) of U = (-8.74355e-10 -3.65665e-09 1.47401e-09)

surfaceFieldValue massFlowAtFilter_80 write:
    sum(fz_solid_80) of phi = -3.58537e-05

volFieldValue volFieldValue_81 write:
    volIntegrate(cz_solid_81) of U = (-3.21341e-10 -2.96906e-09 1.00792e-09)

surfaceFieldValue massFlowAtFilter_81 write:
    sum(fz_solid_81) of phi = -2.46581e-05

volFieldValue volFieldValue_82 write:
    volIntegrate(cz_solid_82) of U = (-9.86092e-11 -2.67219e-09 6.26214e-10)

surfaceFieldValue massFlowAtFilter_82 write:
    sum(fz_solid_82) of phi = -4.24044e-06

volFieldValue volFieldValue_83 write:
    volIntegrate(cz_solid_83) of U = (-1.40631e-10 -2.36751e-09 4.3593e-10)

surfaceFieldValue massFlowAtFilter_83 write:
    sum(fz_solid_83) of phi = -8.99368e-06

volFieldValue volFieldValue_84 write:
    volIntegrate(cz_solid_84) of U = (-2.85849e-10 -2.06789e-09 3.39138e-10)

surfaceFieldValue massFlowAtFilter_84 write:
    sum(fz_solid_84) of phi = -1.6673e-05

volFieldValue volFieldValue_85 write:
    volIntegrate(cz_solid_85) of U = (-4.77547e-10 -1.92779e-09 3.95504e-10)

surfaceFieldValue massFlowAtFilter_85 write:
    sum(fz_solid_85) of phi = -3.17105e-05

volFieldValue volFieldValue_86 write:
    volIntegrate(cz_solid_86) of U = (-6.45421e-10 -1.97833e-09 5.64826e-10)

surfaceFieldValue massFlowAtFilter_86 write:
    sum(fz_solid_86) of phi = -1.65898e-05

volFieldValue volFieldValue_87 write:
    volIntegrate(cz_solid_87) of U = (-6.91101e-10 -1.95833e-09 9.50385e-10)

surfaceFieldValue massFlowAtFilter_87 write:
    sum(fz_solid_87) of phi = 1.56913e-05

volFieldValue volFieldValue_88 write:
    volIntegrate(cz_solid_88) of U = (-5.9478e-10 -2.11947e-09 1.42657e-09)

surfaceFieldValue massFlowAtFilter_88 write:
    sum(fz_solid_88) of phi = -2.0694e-05

volFieldValue volFieldValue_89 write:
    volIntegrate(cz_solid_89) of U = (-2.28811e-10 -2.37631e-09 2.02487e-09)

surfaceFieldValue massFlowAtFilter_89 write:
    sum(fz_solid_89) of phi = 4.2199e-06

volFieldValue volFieldValue_90 write:
    volIntegrate(cz_solid_90) of U = (5.08852e-10 -2.68583e-09 2.5924e-09)

surfaceFieldValue massFlowAtFilter_90 write:
    sum(fz_solid_90) of phi = -1.93888e-05

volFieldValue volFieldValue_91 write:
    volIntegrate(cz_solid_91) of U = (1.60544e-09 -3.27181e-09 2.90957e-09)

surfaceFieldValue massFlowAtFilter_91 write:
    sum(fz_solid_91) of phi = 2.58882e-06

volFieldValue volFieldValue_92 write:
    volIntegrate(cz_solid_92) of U = (3.23923e-09 -4.29504e-09 2.7424e-09)

surfaceFieldValue massFlowAtFilter_92 write:
    sum(fz_solid_92) of phi = -1.64238e-05

volFieldValue volFieldValue_93 write:
    volIntegrate(cz_solid_93) of U = (5.17666e-09 -6.82232e-09 2.10023e-09)

surfaceFieldValue massFlowAtFilter_93 write:
    sum(fz_solid_93) of phi = 4.2688e-06

volFieldValue volFieldValue_94 write:
    volIntegrate(cz_solid_94) of U = (7.64586e-09 -9.92971e-09 1.47272e-09)

surfaceFieldValue massFlowAtFilter_94 write:
    sum(fz_solid_94) of phi = 0.000115884

volFieldValue volFieldValue_95 write:
[...]
    sum(fz_solid_85) of phi = 3.48482e-05

volFieldValue volFieldValue_86 write:
    volIntegrate(cz_solid_86) of U = (4.66506e-09 -4.4466e-08 6.49395e-09)

surfaceFieldValue massFlowAtFilter_86 write:
    sum(fz_solid_86) of phi = -0.0010741

volFieldValue volFieldValue_87 write:
    volIntegrate(cz_solid_87) of U = (4.56543e-09 -3.76604e-08 6.22144e-09)

surfaceFieldValue massFlowAtFilter_87 write:
    sum(fz_solid_87) of phi = 0.00222823

volFieldValue volFieldValue_88 write:
    volIntegrate(cz_solid_88) of U = (7.96818e-09 -2.98034e-08 4.39085e-09)

surfaceFieldValue massFlowAtFilter_88 write:
    sum(fz_solid_88) of phi = -0.000499101

volFieldValue volFieldValue_89 write:
    volIntegrate(cz_solid_89) of U = (7.74977e-09 -4.44983e-08 -4.95146e-10)

surfaceFieldValue massFlowAtFilter_89 write:
    sum(fz_solid_89) of phi = -5.48298e-06

volFieldValue volFieldValue_90 write:
    volIntegrate(cz_solid_90) of U = (3.00941e-09 -4.22113e-08 -2.65819e-09)

surfaceFieldValue massFlowAtFilter_90 write:
    sum(fz_solid_90) of phi = -0.000831369

volFieldValue volFieldValue_91 write:
    volIntegrate(cz_solid_91) of U = (1.28603e-09 -7.95615e-08 -1.43086e-09)

surfaceFieldValue massFlowAtFilter_91 write:
    sum(fz_solid_91) of phi = -6.89846e-05

volFieldValue volFieldValue_92 write:
    volIntegrate(cz_solid_92) of U = (7.19114e-10 -8.66518e-08 -1.48004e-09)

surfaceFieldValue massFlowAtFilter_92 write:
    sum(fz_solid_92) of phi = 6.40259e-05

volFieldValue volFieldValue_93 write:
    volIntegrate(cz_solid_93) of U = (-6.9047e-10 -6.86542e-08 -2.41653e-09)

surfaceFieldValue massFlowAtFilter_93 write:
    sum(fz_solid_93) of phi = -0.00017036

volFieldValue volFieldValue_94 write:
    volIntegrate(cz_solid_94) of U = (-2.55479e-09 -1.78102e-08 -1.57337e-09)

surfaceFieldValue massFlowAtFilter_94 write:
    sum(fz_solid_94) of phi = 0.000436863

volFieldValue volFieldValue_95 write:
    volIntegrate(cz_solid_95) of U = (-1.64212e-09 3.4631e-08 -9.50066e-10)

surfaceFieldValue massFlowAtFilter_95 write:
    sum(fz_solid_95) of phi = 2.16256e-05

volFieldValue volFieldValue_96 write:
    volIntegrate(cz_solid_96) of U = (-7.94522e-10 6.87834e-08 -7.62195e-10)

surfaceFieldValue massFlowAtFilter_96 write:
    sum(fz_solid_96) of phi = 0.000228916

volFieldValue volFieldValue_97 write:
    volIntegrate(cz_solid_97) of U = (-4.44185e-10 8.47482e-08 -1.59919e-10)

surfaceFieldValue massFlowAtFilter_97 write:
    sum(fz_solid_97) of phi = 0.00022762

volFieldValue volFieldValue_98 write:
    volIntegrate(cz_solid_98) of U = (-5.55526e-10 6.09965e-08 1.26698e-10)

surfaceFieldValue massFlowAtFilter_98 write:
    sum(fz_solid_98) of phi = -0.000139244

volFieldValue volFieldValue_99 write:
    volIntegrate(cz_solid_99) of U = (-5.99373e-10 3.07519e-08 3.59765e-10)

surfaceFieldValue massFlowAtFilter_99 write:
    sum(fz_solid_99) of phi = 3.17418e-05

Time = 1061

DILUPBiCG:  Solving for Ux, Initial residual = 1.17427e-07, Final residual = 1.17427e-07, No Iterations 0
DILUPBiCG:  Solving for Uy, Initial residual = 1.12186e-07, Final residual = 1.12186e-07, No Iterations 0
DILUPBiCG:  Solving for Uz, Initial residual = 1.84654e-07, Final residual = 1.84654e-07, No Iterations 0
DICPCG:  Solving for p, Initial residual = 0.00102706, Final residual = 0.000102521, No Iterations 10
DICPCG:  Solving for p, Initial residual = 0.000233921, Final residual = 2.22651e-05, No Iterations 59
DICPCG:  Solving for p, Initial residual = 5.81336e-05, Final residual = 9.97616e-06, No Iterations 47
time step continuity errors : sum local = 8.30154e-05, global = -8.41726e-06, cumulative = 0.00182099
DILUPBiCG:  Solving for epsilon, Initial residual = 0.000577846, Final residual = 4.15377e-07, No Iterations 3
DILUPBiCG:  Solving for k, Initial residual = 0.000939235, Final residual = 4.22152e-07, No Iterations 3
ExecutionTime = 2102.02 s  ClockTime = 2196 s

Time = 1062

DILUPBiCG:  Solving for Ux, Initial residual = 1.17003e-07, Final residual = 1.17003e-07, No Iterations 0
DILUPBiCG:  Solving for Uy, Initial residual = 1.12198e-07, Final residual = 1.12198e-07, No Iterations 0
DILUPBiCG:  Solving for Uz, Initial residual = 1.84141e-07, Final residual = 1.84141e-07, No Iterations 0
DICPCG:  Solving for p, Initial residual = 0.00102379, Final residual = 0.000101889, No Iterations 10
DICPCG:  Solving for p, Initial residual = 0.00023279, Final residual = 2.29475e-05, No Iterations 61
DICPCG:  Solving for p, Initial residual = 5.89624e-05, Final residual = 9.74219e-06, No Iterations 46
time step continuity errors : sum local = 8.10816e-05, global = -7.91078e-06, cumulative = 0.00181308
DILUPBiCG:  Solving for epsilon, Initial residual = 0.000577589, Final residual = 4.40333e-07, No Iterations 3
DILUPBiCG:  Solving for k, Initial residual = 0.000937666, Final residual = 4.2226e-07, No Iterations 3
ExecutionTime = 2103.76 s  ClockTime = 2197 s

Time = 1063

DILUPBiCG:  Solving for Ux, Initial residual = 1.16591e-07, Final residual = 1.16591e-07, No Iterations 0
DILUPBiCG:  Solving for Uy, Initial residual = 1.1221e-07, Final residual = 1.1221e-07, No Iterations 0
DILUPBiCG:  Solving for Uz, Initial residual = 1.8363e-07, Final residual = 1.8363e-07, No Iterations 0
DICPCG:  Solving for p, Initial residual = 0.00102199, Final residual = 0.000100683, No Iterations 10
DICPCG:  Solving for p, Initial residual = 0.00023126, Final residual = 2.23994e-05, No Iterations 69
DICPCG:  Solving for p, Initial residual = 5.86322e-05, Final residual = 9.4005e-06, No Iterations 38
time step continuity errors : sum local = 7.82539e-05, global = -8.32496e-06, cumulative = 0.00180475
DILUPBiCG:  Solving for epsilon, Initial residual = 0.000577262, Final residual = 4.62132e-07, No Iterations 3
DILUPBiCG:  Solving for k, Initial residual = 0.000936092, Final residual = 4.22003e-07, No Iterations 3
ExecutionTime = 2105.5 s  ClockTime = 2199 s

Time = 1064

DILUPBiCG:  Solving for Ux, Initial residual = 1.16199e-07, Final residual = 1.16199e-07, No Iterations 0
DILUPBiCG:  Solving for Uy, Initial residual = 1.12222e-07, Final residual = 1.12222e-07, No Iterations 0
DILUPBiCG:  Solving for Uz, Initial residual = 1.8314e-07, Final residual = 1.8314e-07, No Iterations 0
DICPCG:  Solving for p, Initial residual = 0.00102144, Final residual = 0.000101021, No Iterations 9
DICPCG:  Solving for p, Initial residual = 0.000232866, Final residual = 2.3204e-05, No Iterations 73
DICPCG:  Solving for p, Initial residual = 6.0358e-05, Final residual = 9.90422e-06, No Iterations 35
time step continuity errors : sum local = 8.24661e-05, global = -9.69225e-06, cumulative = 0.00179506
DILUPBiCG:  Solving for epsilon, Initial residual = 0.000576941, Final residual = 4.75442e-07, No Iterations 3
DILUPBiCG:  Solving for k, Initial residual = 0.000934504, Final residual = 4.21372e-07, No Iterations 3
ExecutionTime = 2107.24 s  ClockTime = 2201 s

Time = 1065

DILUPBiCG:  Solving for Ux, Initial residual = 1.15811e-07, Final residual = 1.15811e-07, No Iterations 0
DILUPBiCG:  Solving for Uy, Initial residual = 1.12237e-07, Final residual = 1.12237e-07, No Iterations 0
DILUPBiCG:  Solving for Uz, Initial residual = 1.82642e-07, Final residual = 1.82642e-07, No Iterations 0
DICPCG:  Solving for p, Initial residual = 0.00101794, Final residual = 0.00010009, No Iterations 9
DICPCG:  Solving for p, Initial residual = 0.000231929, Final residual = 2.31216e-05, No Iterations 71
DICPCG:  Solving for p, Initial residual = 6.03605e-05, Final residual = 8.91908e-06, No Iterations 35
time step continuity errors : sum local = 7.42836e-05, global = -1.20827e-05, cumulative = 0.00178298
DILUPBiCG:  Solving for epsilon, Initial residual = 0.000576587, Final residual = 4.91538e-07, No Iterations 3
DILUPBiCG:  Solving for k, Initial residual = 0.000932958, Final residual = 4.20408e-07, No Iterations 3
ExecutionTime = 2108.97 s  ClockTime = 2202 s

Time = 1066

DILUPBiCG:  Solving for Ux, Initial residual = 1.15418e-07, Final residual = 1.15418e-07, No Iterations 0
DILUPBiCG:  Solving for Uy, Initial residual = 1.12255e-07, Final residual = 1.12255e-07, No Iterations 0
DILUPBiCG:  Solving for Uz, Initial residual = 1.82129e-07, Final residual = 1.82129e-07, No Iterations 0
DICPCG:  Solving for p, Initial residual = 0.00101752, Final residual = 9.72127e-05, No Iterations 9
DICPCG:  Solving for p, Initial residual = 0.000229742, Final residual = 2.2965e-05, No Iterations 71
DICPCG:  Solving for p, Initial residual = 6.00283e-05, Final residual = 8.93587e-06, No Iterations 35
time step continuity errors : sum local = 7.44486e-05, global = -1.52665e-05, cumulative = 0.00176771
DILUPBiCG:  Solving for epsilon, Initial residual = 0.000576288, Final residual = 4.99566e-07, No Iterations 3
DILUPBiCG:  Solving for k, Initial residual = 0.000931405, Final residual = 4.19263e-07, No Iterations 3
ExecutionTime = 2110.69 s  ClockTime = 2204 s

Time = 1067

DILUPBiCG:  Solving for Ux, Initial residual = 1.15026e-07, Final residual = 1.15026e-07, No Iterations 0
DILUPBiCG:  Solving for Uy, Initial residual = 1.12275e-07, Final residual = 1.12275e-07, No Iterations 0
DILUPBiCG:  Solving for Uz, Initial residual = 1.81612e-07, Final residual = 1.81612e-07, No Iterations 0
DICPCG:  Solving for p, Initial residual = 0.00101917, Final residual = 9.67499e-05, No Iterations 9
DICPCG:  Solving for p, Initial residual = 0.000229083, Final residual = 2.26094e-05, No Iterations 72
DICPCG:  Solving for p, Initial residual = 5.93543e-05, Final residual = 9.99028e-06, No Iterations 35
time step continuity errors : sum local = 8.32685e-05, global = -1.93851e-05, cumulative = 0.00174832
DILUPBiCG:  Solving for epsilon, Initial residual = 0.000575913, Final residual = 9.81614e-06, No Iterations 2
DILUPBiCG:  Solving for k, Initial residual = 0.000929849, Final residual = 4.18163e-07, No Iterations 3
ExecutionTime = 2112.4 s  ClockTime = 2206 s

Time = 1068

DILUPBiCG:  Solving for Ux, Initial residual = 1.14639e-07, Final residual = 1.14639e-07, No Iterations 0
DILUPBiCG:  Solving for Uy, Initial residual = 1.12298e-07, Final residual = 1.12298e-07, No Iterations 0
DILUPBiCG:  Solving for Uz, Initial residual = 1.81106e-07, Final residual = 1.81106e-07, No Iterations 0
DICPCG:  Solving for p, Initial residual = 0.00102003, Final residual = 0.000100651, No Iterations 8
DICPCG:  Solving for p, Initial residual = 0.000230962, Final residual = 2.26971e-05, No Iterations 73
DICPCG:  Solving for p, Initial residual = 6.07386e-05, Final residual = 9.861e-06, No Iterations 228
time step continuity errors : sum local = 8.22204e-05, global = 2.14869e-07, cumulative = 0.00174854
DILUPBiCG:  Solving for epsilon, Initial residual = 0.000575837, Final residual = 5.14049e-07, No Iterations 3
DILUPBiCG:  Solving for k, Initial residual = 0.000928363, Final residual = 4.16739e-07, No Iterations 3
ExecutionTime = 2115.51 s  ClockTime = 2209 s

Time = 1069

DILUPBiCG:  Solving for Ux, Initial residual = 1.14281e-07, Final residual = 1.14281e-07, No Iterations 0
DILUPBiCG:  Solving for Uy, Initial residual = 1.12324e-07, Final residual = 1.12324e-07, No Iterations 0
DILUPBiCG:  Solving for Uz, Initial residual = 1.80647e-07, Final residual = 1.80647e-07, No Iterations 0
DICPCG:  Solving for p, Initial residual = 0.00101695, Final residual = 0.00010009, No Iterations 8
DICPCG:  Solving for p, Initial residual = 0.000229521, Final residual = 2.24345e-05, No Iterations 65
DICPCG:  Solving for p, Initial residual = 5.98026e-05, Final residual = 9.74138e-06, No Iterations 216
time step continuity errors : sum local = 8.13405e-05, global = -3.53438e-07, cumulative = 0.00174819
DILUPBiCG:  Solving for epsilon, Initial residual = 0.000575435, Final residual = 8.9069e-06, No Iterations 2
DILUPBiCG:  Solving for k, Initial residual = 0.000926835, Final residual = 4.15137e-07, No Iterations 3
ExecutionTime = 2118.45 s  ClockTime = 2212 s

Time = 1070

DILUPBiCG:  Solving for Ux, Initial residual = 1.13911e-07, Final residual = 1.13911e-07, No Iterations 0
DILUPBiCG:  Solving for Uy, Initial residual = 1.12348e-07, Final residual = 1.12348e-07, No Iterations 0
DILUPBiCG:  Solving for Uz, Initial residual = 1.80156e-07, Final residual = 1.80156e-07, No Iterations 0
DICPCG:  Solving for p, Initial residual = 0.00101213, Final residual = 0.000100434, No Iterations 8
DICPCG:  Solving for p, Initial residual = 0.000228972, Final residual = 2.21401e-05, No Iterations 30
DICPCG:  Solving for p, Initial residual = 5.74355e-05, Final residual = 9.56562e-06, No Iterations 72
time step continuity errors : sum local = 7.99533e-05, global = -6.62652e-06, cumulative = 0.00174156
DILUPBiCG:  Solving for epsilon, Initial residual = 0.000575065, Final residual = 8.75413e-06, No Iterations 2
DILUPBiCG:  Solving for k, Initial residual = 0.000925293, Final residual = 4.13725e-07, No Iterations 3
ExecutionTime = 2120.12 s  ClockTime = 2214 s

Time = 1071

DILUPBiCG:  Solving for Ux, Initial residual = 1.13537e-07, Final residual = 1.13537e-07, No Iterations 0
DILUPBiCG:  Solving for Uy, Initial residual = 1.12365e-07, Final residual = 1.12365e-07, No Iterations 0
DILUPBiCG:  Solving for Uz, Initial residual = 1.79665e-07, Final residual = 1.79665e-07, No Iterations 0
DICPCG:  Solving for p, Initial residual = 0.00101123, Final residual = 9.98882e-05, No Iterations 8
DICPCG:  Solving for p, Initial residual = 0.000228314, Final residual = 2.27637e-05, No Iterations 29
DICPCG:  Solving for p, Initial residual = 5.78262e-05, Final residual = 9.8105e-06, No Iterations 72
time step continuity errors : sum local = 8.20173e-05, global = -3.11201e-06, cumulative = 0.00173845
DILUPBiCG:  Solving for epsilon, Initial residual = 0.00057485, Final residual = 8.50395e-06, No Iterations 2
DILUPBiCG:  Solving for k, Initial residual = 0.000923794, Final residual = 4.12084e-07, No Iterations 3
ExecutionTime = 2121.79 s  ClockTime = 2215 s

Time = 1072

DILUPBiCG:  Solving for Ux, Initial residual = 1.13178e-07, Final residual = 1.13178e-07, No Iterations 0
DILUPBiCG:  Solving for Uy, Initial residual = 1.12384e-07, Final residual = 1.12384e-07, No Iterations 0
DILUPBiCG:  Solving for Uz, Initial residual = 1.79192e-07, Final residual = 1.79192e-07, No Iterations 0
DICPCG:  Solving for p, Initial residual = 0.00100604, Final residual = 9.88049e-05, No Iterations 8
DICPCG:  Solving for p, Initial residual = 0.000227314, Final residual = 2.26691e-05, No Iterations 29
DICPCG:  Solving for p, Initial residual = 5.76436e-05, Final residual = 9.73854e-06, No Iterations 71
time step continuity errors : sum local = 8.14392e-05, global = -4.47654e-07, cumulative = 0.001738
DILUPBiCG:  Solving for epsilon, Initial residual = 0.000574577, Final residual = 8.32214e-06, No Iterations 2
DILUPBiCG:  Solving for k, Initial residual = 0.000922315, Final residual = 4.10357e-07, No Iterations 3
ExecutionTime = 2123.43 s  ClockTime = 2217 s

Time = 1073

DILUPBiCG:  Solving for Ux, Initial residual = 1.12839e-07, Final residual = 1.12839e-07, No Iterations 0
DILUPBiCG:  Solving for Uy, Initial residual = 1.12404e-07, Final residual = 1.12404e-07, No Iterations 0
DILUPBiCG:  Solving for Uz, Initial residual = 1.78734e-07, Final residual = 1.78734e-07, No Iterations 0
DICPCG:  Solving for p, Initial residual = 0.00100568, Final residual = 9.86342e-05, No Iterations 8
DICPCG:  Solving for p, Initial residual = 0.000226857, Final residual = 2.13047e-05, No Iterations 30
DICPCG:  Solving for p, Initial residual = 5.65058e-05, Final residual = 9.89566e-06, No Iterations 70
time step continuity errors : sum local = 8.27832e-05, global = 1.32094e-06, cumulative = 0.00173932
DILUPBiCG:  Solving for epsilon, Initial residual = 0.000574181, Final residual = 7.97489e-06, No Iterations 2
DILUPBiCG:  Solving for k, Initial residual = 0.000920834, Final residual = 4.08509e-07, No Iterations 3
ExecutionTime = 2125.08 s  ClockTime = 2219 s

Time = 1074

DILUPBiCG:  Solving for Ux, Initial residual = 1.12508e-07, Final residual = 1.12508e-07, No Iterations 0
DILUPBiCG:  Solving for Uy, Initial residual = 1.12424e-07, Final residual = 1.12424e-07, No Iterations 0
DILUPBiCG:  Solving for Uz, Initial residual = 1.78264e-07, Final residual = 1.78264e-07, No Iterations 0
DICPCG:  Solving for p, Initial residual = 0.0010005, Final residual = 9.8952e-05, No Iterations 8
DICPCG:  Solving for p, Initial residual = 0.000226372, Final residual = 2.14798e-05, No Iterations 30
DICPCG:  Solving for p, Initial residual = 5.63692e-05, Final residual = 9.8916e-06, No Iterations 70
time step continuity errors : sum local = 8.27656e-05, global = 2.32894e-06, cumulative = 0.00174165
DILUPBiCG:  Solving for epsilon, Initial residual = 0.000573872, Final residual = 7.52476e-06, No Iterations 2
DILUPBiCG:  Solving for k, Initial residual = 0.000919378, Final residual = 4.06734e-07, No Iterations 3
ExecutionTime = 2126.74 s  ClockTime = 2220 s

Time = 1075

DILUPBiCG:  Solving for Ux, Initial residual = 1.12185e-07, Final residual = 1.12185e-07, No Iterations 0
DILUPBiCG:  Solving for Uy, Initial residual = 1.12447e-07, Final residual = 1.12447e-07, No Iterations 0
DILUPBiCG:  Solving for Uz, Initial residual = 1.77792e-07, Final residual = 1.77792e-07, No Iterations 0
DICPCG:  Solving for p, Initial residual = 0.00100373, Final residual = 9.90859e-05, No Iterations 8
DICPCG:  Solving for p, Initial residual = 0.000226521, Final residual = 2.15963e-05, No Iterations 30
DICPCG:  Solving for p, Initial residual = 5.643e-05, Final residual = 9.94011e-06, No Iterations 67
time step continuity errors : sum local = 8.31943e-05, global = 2.79091e-06, cumulative = 0.00174444
DILUPBiCG:  Solving for epsilon, Initial residual = 0.000573701, Final residual = 7.57311e-06, No Iterations 2
DILUPBiCG:  Solving for k, Initial residual = 0.000917932, Final residual = 4.04987e-07, No Iterations 3
ExecutionTime = 2128.38 s  ClockTime = 2222 s

Time = 1076

DILUPBiCG:  Solving for Ux, Initial residual = 1.11869e-07, Final residual = 1.11869e-07, No Iterations 0
DILUPBiCG:  Solving for Uy, Initial residual = 1.12471e-07, Final residual = 1.12471e-07, No Iterations 0
DILUPBiCG:  Solving for Uz, Initial residual = 1.77321e-07, Final residual = 1.77321e-07, No Iterations 0
DICPCG:  Solving for p, Initial residual = 0.00100235, Final residual = 9.65053e-05, No Iterations 8
DICPCG:  Solving for p, Initial residual = 0.000224148, Final residual = 2.08728e-05, No Iterations 30
DICPCG:  Solving for p, Initial residual = 5.57113e-05, Final residual = 9.67255e-06, No Iterations 66
time step continuity errors : sum local = 8.0985e-05, global = 2.26012e-06, cumulative = 0.0017467
DILUPBiCG:  Solving for epsilon, Initial residual = 0.000573409, Final residual = 7.78437e-06, No Iterations 2
DILUPBiCG:  Solving for k, Initial residual = 0.000916494, Final residual = 4.03201e-07, No Iterations 3
ExecutionTime = 2129.99 s  ClockTime = 2224 s

Time = 1077

DILUPBiCG:  Solving for Ux, Initial residual = 1.11554e-07, Final residual = 1.11554e-07, No Iterations 0
DILUPBiCG:  Solving for Uy, Initial residual = 1.12496e-07, Final residual = 1.12496e-07, No Iterations 0
DILUPBiCG:  Solving for Uz, Initial residual = 1.76846e-07, Final residual = 1.76846e-07, No Iterations 0
DICPCG:  Solving for p, Initial residual = 0.000996844, Final residual = 9.41201e-05, No Iterations 8
DICPCG:  Solving for p, Initial residual = 0.000221572, Final residual = 2.03481e-05, No Iterations 30
DICPCG:  Solving for p, Initial residual = 5.48978e-05, Final residual = 9.37778e-06, No Iterations 65
time step continuity errors : sum local = 7.85486e-05, global = 1.0305e-06, cumulative = 0.00174773
DILUPBiCG:  Solving for epsilon, Initial residual = 0.000573161, Final residual = 7.88313e-06, No Iterations 2
DILUPBiCG:  Solving for k, Initial residual = 0.000915072, Final residual = 4.01703e-07, No Iterations 3
ExecutionTime = 2131.6 s  ClockTime = 2225 s


SIMPLE solution converged in 1077 iterations

End

Finalising parallel run
