/*---------------------------------------------------------------------------*\
  =========                 |
  \\      /  F ield         | OpenFOAM: The Open Source CFD Toolbox
   \\    /   O peration     | Website:  https://openfoam.org
    \\  /    A nd           | Version:  6
     \\/     M anipulation  |
\*---------------------------------------------------------------------------*/
Build  : 6
Exec   : bouSimpleFoam -parallel
Date   : Aug 09 2020
Time   : 00:39:24
Host   : "emps-ugcs2"
PID    : 25117
I/O    : uncollated
Case   : /home/links/jjw230/Second_Extra/Case19
nProcs : 4
Slaves : 
3
(
"emps-ugcs2.25118"
"emps-ugcs2.25119"
"emps-ugcs2.25120"
)

Pstream initialized with:
    floatTransfer      : 0
    nProcsSimpleSum    : 0
    commsType          : nonBlocking
    polling iterations : 0
sigFpe : Enabling floating point exception trapping (FOAM_SIGFPE).
fileModificationChecking : Monitoring run-time modified files using timeStampMaster (fileModificationSkew 10)
allowSystemOperations : Allowing user-supplied system call operations

// * * * * * * * * * * * * * * * * * * * * * * * * * * * * * * * * * * * * * //
Create time

Create mesh for time = 0


SIMPLE: Convergence criteria found
        p: tolerance 0.001
        U: tolerance 0.001
        "(k|epsilon)": tolerance 0.001
        theta: tolerance 0.001

Reading field p

Reading field U

Reading field theta

Reading/calculating face flux field phi

Selecting incompressible transport model Newtonian
Selecting turbulence model type RAS
Selecting RAS turbulence model RNGkEpsilon
RAS
{
    RASModel        RNGkEpsilon;
    turbulence      on;
    printCoeffs     on;
    Cmu             0.0845;
    C1              1.42;
    C2              1.68;
    C3              0;
    sigmak          0.71942;
    sigmaEps        0.71942;
    eta0            4.38;
    beta            0.012;
}

No MRF models present

Creating finite volume options from "system/fvOptions"

Selecting finite volume options model type explicitPorositySource
    Source: source0
    - selecting cells using cellZone cz_solid_0
    - selected 2318 cell(s) with volume 0.00214555
Porosity region source0:
    selecting model: DarcyForchheimer
    creating porous zone: cz_solid_0
Selecting finite volume options model type explicitPorositySource
    Source: source1
    - selecting cells using cellZone cz_solid_1
    - selected 2452 cell(s) with volume 0.00214196
Porosity region source1:
    selecting model: DarcyForchheimer
    creating porous zone: cz_solid_1
Selecting finite volume options model type explicitPorositySource
    Source: source2
    - selecting cells using cellZone cz_solid_2
    - selected 2346 cell(s) with volume 0.00214578
Porosity region source2:
    selecting model: DarcyForchheimer
    creating porous zone: cz_solid_2
Selecting finite volume options model type explicitPorositySource
    Source: source3
    - selecting cells using cellZone cz_solid_3
    - selected 2089 cell(s) with volume 0.00214075
Porosity region source3:
    selecting model: DarcyForchheimer
    creating porous zone: cz_solid_3
Selecting finite volume options model type explicitPorositySource
    Source: source4
    - selecting cells using cellZone cz_solid_4
    - selected 2326 cell(s) with volume 0.00214492
Porosity region source4:
    selecting model: DarcyForchheimer
    creating porous zone: cz_solid_4
Selecting finite volume options model type explicitPorositySource
    Source: source5
    - selecting cells using cellZone cz_solid_5
    - selected 1880 cell(s) with volume 0.00214169
Porosity region source5:
    selecting model: DarcyForchheimer
    creating porous zone: cz_solid_5
Selecting finite volume options model type explicitPorositySource
    Source: source6
    - selecting cells using cellZone cz_solid_6
    - selected 2174 cell(s) with volume 0.00214462
Porosity region source6:
    selecting model: DarcyForchheimer
    creating porous zone: cz_solid_6
Selecting finite volume options model type explicitPorositySource
    Source: source7
    - selecting cells using cellZone cz_solid_7
    - selected 2094 cell(s) with volume 0.00214456
Porosity region source7:
    selecting model: DarcyForchheimer
    creating porous zone: cz_solid_7
Selecting finite volume options model type explicitPorositySource
    Source: source8
    - selecting cells using cellZone cz_solid_8
    - selected 1733 cell(s) with volume 0.00214311
Porosity region source8:
    selecting model: DarcyForchheimer
    creating porous zone: cz_solid_8
Selecting finite volume options model type explicitPorositySource
    Source: source9
    - selecting cells using cellZone cz_solid_9
    - selected 2083 cell(s) with volume 0.00214285
Porosity region source9:
    selecting model: DarcyForchheimer
    creating porous zone: cz_solid_9
Selecting finite volume options model type explicitPorositySource
    Source: source10
    - selecting cells using cellZone cz_solid_10
    - selected 2281 cell(s) with volume 0.00214538
Porosity region source10:
    selecting model: DarcyForchheimer
    creating porous zone: cz_solid_10
Selecting finite volume options model type explicitPorositySource
    Source: source11
    - selecting cells using cellZone cz_solid_11
    - selected 2356 cell(s) with volume 0.00214352
Porosity region source11:
    selecting model: DarcyForchheimer
    creating porous zone: cz_solid_11
Selecting finite volume options model type explicitPorositySource
    Source: source12
    - selecting cells using cellZone cz_solid_12
    - selected 2358 cell(s) with volume 0.00214464
Porosity region source12:
    selecting model: DarcyForchheimer
    creating porous zone: cz_solid_12
Selecting finite volume options model type explicitPorositySource
    Source: source13
    - selecting cells using cellZone cz_solid_13
    - selected 2004 cell(s) with volume 0.00214296
Porosity region source13:
    selecting model: DarcyForchheimer
    creating porous zone: cz_solid_13
Selecting finite volume options model type explicitPorositySource
    Source: source14
    - selecting cells using cellZone cz_solid_14
    - selected 1880 cell(s) with volume 0.00214435
Porosity region source14:
    selecting model: DarcyForchheimer
    creating porous zone: cz_solid_14
Selecting finite volume options model type explicitPorositySource
    Source: source15
    - selecting cells using cellZone cz_solid_15
    - selected 2114 cell(s) with volume 0.00214215
Porosity region source15:
    selecting model: DarcyForchheimer
    creating porous zone: cz_solid_15
Selecting finite volume options model type explicitPorositySource
    Source: source16
    - selecting cells using cellZone cz_solid_16
    - selected 2244 cell(s) with volume 0.00214181
Porosity region source16:
    selecting model: DarcyForchheimer
    creating porous zone: cz_solid_16
Selecting finite volume options model type explicitPorositySource
    Source: source17
    - selecting cells using cellZone cz_solid_17
    - selected 2319 cell(s) with volume 0.00214534
Porosity region source17:
    selecting model: DarcyForchheimer
    creating porous zone: cz_solid_17
Selecting finite volume options model type explicitPorositySource
    Source: source18
    - selecting cells using cellZone cz_solid_18
    - selected 2361 cell(s) with volume 0.00214498
Porosity region source18:
    selecting model: DarcyForchheimer
    creating porous zone: cz_solid_18
Selecting finite volume options model type explicitPorositySource
    Source: source19
    - selecting cells using cellZone cz_solid_19
    - selected 1815 cell(s) with volume 0.00213925
Porosity region source19:
    selecting model: DarcyForchheimer
    creating porous zone: cz_solid_19
Selecting finite volume options model type explicitPorositySource
    Source: source20
    - selecting cells using cellZone cz_solid_20
    - selected 2328 cell(s) with volume 0.00214493
Porosity region source20:
    selecting model: DarcyForchheimer
    creating porous zone: cz_solid_20
Selecting finite volume options model type explicitPorositySource
    Source: source21
    - selecting cells using cellZone cz_solid_21
    - selected 2444 cell(s) with volume 0.00214202
Porosity region source21:
    selecting model: DarcyForchheimer
    creating porous zone: cz_solid_21
Selecting finite volume options model type explicitPorositySource
    Source: source22
    - selecting cells using cellZone cz_solid_22
    - selected 2328 cell(s) with volume 0.00214556
Porosity region source22:
    selecting model: DarcyForchheimer
    creating porous zone: cz_solid_22
Selecting finite volume options model type explicitPorositySource
    Source: source23
    - selecting cells using cellZone cz_solid_23
    - selected 2088 cell(s) with volume 0.00214077
Porosity region source23:
    selecting model: DarcyForchheimer
    creating porous zone: cz_solid_23
Selecting finite volume options model type explicitPorositySource
    Source: source24
    - selecting cells using cellZone cz_solid_24
    - selected 2332 cell(s) with volume 0.00214486
Porosity region source24:
    selecting model: DarcyForchheimer
    creating porous zone: cz_solid_24
Selecting finite volume options model type explicitPorositySource
    Source: source25
    - selecting cells using cellZone cz_solid_25
    - selected 1892 cell(s) with volume 0.00214102
Porosity region source25:
    selecting model: DarcyForchheimer
    creating porous zone: cz_solid_25
Selecting finite volume options model type explicitPorositySource
    Source: source26
    - selecting cells using cellZone cz_solid_26
    - selected 2164 cell(s) with volume 0.00214446
Porosity region source26:
    selecting model: DarcyForchheimer
    creating porous zone: cz_solid_26
Selecting finite volume options model type explicitPorositySource
    Source: source27
    - selecting cells using cellZone cz_solid_27
    - selected 2090 cell(s) with volume 0.00214473
Porosity region source27:
    selecting model: DarcyForchheimer
    creating porous zone: cz_solid_27
Selecting finite volume options model type explicitPorositySource
    Source: source28
    - selecting cells using cellZone cz_solid_28
    - selected 1738 cell(s) with volume 0.00214294
Porosity region source28:
    selecting model: DarcyForchheimer
    creating porous zone: cz_solid_28
Selecting finite volume options model type explicitPorositySource
    Source: source29
    - selecting cells using cellZone cz_solid_29
    - selected 2074 cell(s) with volume 0.0021428
Porosity region source29:
    selecting model: DarcyForchheimer
    creating porous zone: cz_solid_29
Selecting finite volume options model type explicitPorositySource
    Source: source30
    - selecting cells using cellZone cz_solid_30
    - selected 2292 cell(s) with volume 0.00214513
Porosity region source30:
    selecting model: DarcyForchheimer
    creating porous zone: cz_solid_30
Selecting finite volume options model type explicitPorositySource
    Source: source31
    - selecting cells using cellZone cz_solid_31
    - selected 2368 cell(s) with volume 0.00214363
Porosity region source31:
    selecting model: DarcyForchheimer
    creating porous zone: cz_solid_31
Selecting finite volume options model type explicitPorositySource
    Source: source32
    - selecting cells using cellZone cz_solid_32
    - selected 2348 cell(s) with volume 0.0021446
Porosity region source32:
    selecting model: DarcyForchheimer
    creating porous zone: cz_solid_32
Selecting finite volume options model type explicitPorositySource
    Source: source33
    - selecting cells using cellZone cz_solid_33
    - selected 1996 cell(s) with volume 0.00214287
Porosity region source33:
    selecting model: DarcyForchheimer
    creating porous zone: cz_solid_33
Selecting finite volume options model type explicitPorositySource
    Source: source34
    - selecting cells using cellZone cz_solid_34
    - selected 1892 cell(s) with volume 0.00214427
Porosity region source34:
    selecting model: DarcyForchheimer
    creating porous zone: cz_solid_34
Selecting finite volume options model type explicitPorositySource
    Source: source35
    - selecting cells using cellZone cz_solid_35
    - selected 2106 cell(s) with volume 0.00214154
Porosity region source35:
    selecting model: DarcyForchheimer
    creating porous zone: cz_solid_35
Selecting finite volume options model type explicitPorositySource
    Source: source36
    - selecting cells using cellZone cz_solid_36
    - selected 2256 cell(s) with volume 0.00214186
Porosity region source36:
    selecting model: DarcyForchheimer
    creating porous zone: cz_solid_36
Selecting finite volume options model type explicitPorositySource
    Source: source37
    - selecting cells using cellZone cz_solid_37
    - selected 2332 cell(s) with volume 0.00214482
Porosity region source37:
    selecting model: DarcyForchheimer
    creating porous zone: cz_solid_37
Selecting finite volume options model type explicitPorositySource
    Source: source38
    - selecting cells using cellZone cz_solid_38
    - selected 2346 cell(s) with volume 0.0021445
Porosity region source38:
    selecting model: DarcyForchheimer
    creating porous zone: cz_solid_38
Selecting finite volume options model type explicitPorositySource
    Source: source39
    - selecting cells using cellZone cz_solid_39
    - selected 1814 cell(s) with volume 0.00213939
Porosity region source39:
    selecting model: DarcyForchheimer
    creating porous zone: cz_solid_39
Selecting finite volume options model type explicitPorositySource
    Source: source40
    - selecting cells using cellZone cz_solid_40
    - selected 2388 cell(s) with volume 0.00214548
Porosity region source40:
    selecting model: DarcyForchheimer
    creating porous zone: cz_solid_40
Selecting finite volume options model type explicitPorositySource
    Source: source41
    - selecting cells using cellZone cz_solid_41
    - selected 2508 cell(s) with volume 0.00214179
Porosity region source41:
    selecting model: DarcyForchheimer
    creating porous zone: cz_solid_41
Selecting finite volume options model type explicitPorositySource
    Source: source42
    - selecting cells using cellZone cz_solid_42
    - selected 2409 cell(s) with volume 0.00214568
Porosity region source42:
    selecting model: DarcyForchheimer
    creating porous zone: cz_solid_42
Selecting finite volume options model type explicitPorositySource
    Source: source43
    - selecting cells using cellZone cz_solid_43
    - selected 2159 cell(s) with volume 0.00214076
Porosity region source43:
    selecting model: DarcyForchheimer
    creating porous zone: cz_solid_43
Selecting finite volume options model type explicitPorositySource
    Source: source44
    - selecting cells using cellZone cz_solid_44
    - selected 2396 cell(s) with volume 0.00214504
Porosity region source44:
    selecting model: DarcyForchheimer
    creating porous zone: cz_solid_44
Selecting finite volume options model type explicitPorositySource
    Source: source45
    - selecting cells using cellZone cz_solid_45
    - selected 1964 cell(s) with volume 0.00214178
Porosity region source45:
    selecting model: DarcyForchheimer
    creating porous zone: cz_solid_45
Selecting finite volume options model type explicitPorositySource
    Source: source46
    - selecting cells using cellZone cz_solid_46
    - selected 2244 cell(s) with volume 0.0021446
Porosity region source46:
    selecting model: DarcyForchheimer
    creating porous zone: cz_solid_46
Selecting finite volume options model type explicitPorositySource
    Source: source47
    - selecting cells using cellZone cz_solid_47
    - selected 2171 cell(s) with volume 0.00214457
Porosity region source47:
    selecting model: DarcyForchheimer
    creating porous zone: cz_solid_47
Selecting finite volume options model type explicitPorositySource
    Source: source48
    - selecting cells using cellZone cz_solid_48
    - selected 1810 cell(s) with volume 0.00214308
Porosity region source48:
    selecting model: DarcyForchheimer
    creating porous zone: cz_solid_48
Selecting finite volume options model type explicitPorositySource
    Source: source49
    - selecting cells using cellZone cz_solid_49
    - selected 2139 cell(s) with volume 0.00214293
Porosity region source49:
    selecting model: DarcyForchheimer
    creating porous zone: cz_solid_49
Selecting finite volume options model type explicitPorositySource
    Source: source50
    - selecting cells using cellZone cz_solid_50
    - selected 2365 cell(s) with volume 0.002145
Porosity region source50:
    selecting model: DarcyForchheimer
    creating porous zone: cz_solid_50
Selecting finite volume options model type explicitPorositySource
    Source: source51
    - selecting cells using cellZone cz_solid_51
    - selected 2433 cell(s) with volume 0.00214352
Porosity region source51:
    selecting model: DarcyForchheimer
    creating porous zone: cz_solid_51
Selecting finite volume options model type explicitPorositySource
    Source: source52
    - selecting cells using cellZone cz_solid_52
    - selected 2414 cell(s) with volume 0.00214447
Porosity region source52:
    selecting model: DarcyForchheimer
    creating porous zone: cz_solid_52
Selecting finite volume options model type explicitPorositySource
    Source: source53
    - selecting cells using cellZone cz_solid_53
    - selected 2060 cell(s) with volume 0.00214295
Porosity region source53:
    selecting model: DarcyForchheimer
    creating porous zone: cz_solid_53
Selecting finite volume options model type explicitPorositySource
    Source: source54
    - selecting cells using cellZone cz_solid_54
    - selected 1964 cell(s) with volume 0.00214435
Porosity region source54:
    selecting model: DarcyForchheimer
    creating porous zone: cz_solid_54
Selecting finite volume options model type explicitPorositySource
    Source: source55
    - selecting cells using cellZone cz_solid_55
    - selected 2177 cell(s) with volume 0.00214205
Porosity region source55:
    selecting model: DarcyForchheimer
    creating porous zone: cz_solid_55
Selecting finite volume options model type explicitPorositySource
    Source: source56
    - selecting cells using cellZone cz_solid_56
    - selected 2321 cell(s) with volume 0.00214185
Porosity region source56:
    selecting model: DarcyForchheimer
    creating porous zone: cz_solid_56
Selecting finite volume options model type explicitPorositySource
    Source: source57
    - selecting cells using cellZone cz_solid_57
    - selected 2389 cell(s) with volume 0.00214564
Porosity region source57:
    selecting model: DarcyForchheimer
    creating porous zone: cz_solid_57
Selecting finite volume options model type explicitPorositySource
    Source: source58
    - selecting cells using cellZone cz_solid_58
    - selected 2417 cell(s) with volume 0.00214506
Porosity region source58:
    selecting model: DarcyForchheimer
    creating porous zone: cz_solid_58
Selecting finite volume options model type explicitPorositySource
    Source: source59
    - selecting cells using cellZone cz_solid_59
    - selected 1885 cell(s) with volume 0.00213934
Porosity region source59:
    selecting model: DarcyForchheimer
    creating porous zone: cz_solid_59
Selecting finite volume options model type explicitPorositySource
    Source: source60
    - selecting cells using cellZone cz_solid_60
    - selected 2374 cell(s) with volume 0.00214532
Porosity region source60:
    selecting model: DarcyForchheimer
    creating porous zone: cz_solid_60
Selecting finite volume options model type explicitPorositySource
    Source: source61
    - selecting cells using cellZone cz_solid_61
    - selected 2473 cell(s) with volume 0.00214207
Porosity region source61:
    selecting model: DarcyForchheimer
    creating porous zone: cz_solid_61
Selecting finite volume options model type explicitPorositySource
    Source: source62
    - selecting cells using cellZone cz_solid_62
    - selected 2346 cell(s) with volume 0.00214575
Porosity region source62:
    selecting model: DarcyForchheimer
    creating porous zone: cz_solid_62
Selecting finite volume options model type explicitPorositySource
    Source: source63
    - selecting cells using cellZone cz_solid_63
    - selected 2096 cell(s) with volume 0.00214078
Porosity region source63:
    selecting model: DarcyForchheimer
    creating porous zone: cz_solid_63
Selecting finite volume options model type explicitPorositySource
    Source: source64
    - selecting cells using cellZone cz_solid_64
    - selected 2326 cell(s) with volume 0.00214516
Porosity region source64:
    selecting model: DarcyForchheimer
    creating porous zone: cz_solid_64
Selecting finite volume options model type explicitPorositySource
    Source: source65
    - selecting cells using cellZone cz_solid_65
    - selected 1883 cell(s) with volume 0.00214171
Porosity region source65:
    selecting model: DarcyForchheimer
    creating porous zone: cz_solid_65
Selecting finite volume options model type explicitPorositySource
    Source: source66
    - selecting cells using cellZone cz_solid_66
    - selected 2198 cell(s) with volume 0.00214429
Porosity region source66:
    selecting model: DarcyForchheimer
    creating porous zone: cz_solid_66
Selecting finite volume options model type explicitPorositySource
    Source: source67
    - selecting cells using cellZone cz_solid_67
    - selected 2118 cell(s) with volume 0.0021449
Porosity region source67:
    selecting model: DarcyForchheimer
    creating porous zone: cz_solid_67
Selecting finite volume options model type explicitPorositySource
    Source: source68
    - selecting cells using cellZone cz_solid_68
    - selected 1727 cell(s) with volume 0.00214313
Porosity region source68:
    selecting model: DarcyForchheimer
    creating porous zone: cz_solid_68
Selecting finite volume options model type explicitPorositySource
    Source: source69
    - selecting cells using cellZone cz_solid_69
    - selected 2097 cell(s) with volume 0.00214274
Porosity region source69:
    selecting model: DarcyForchheimer
    creating porous zone: cz_solid_69
Selecting finite volume options model type explicitPorositySource
    Source: source70
    - selecting cells using cellZone cz_solid_70
    - selected 2309 cell(s) with volume 0.00214524
Porosity region source70:
    selecting model: DarcyForchheimer
    creating porous zone: cz_solid_70
Selecting finite volume options model type explicitPorositySource
    Source: source71
    - selecting cells using cellZone cz_solid_71
    - selected 2377 cell(s) with volume 0.0021437
Porosity region source71:
    selecting model: DarcyForchheimer
    creating porous zone: cz_solid_71
Selecting finite volume options model type explicitPorositySource
    Source: source72
    - selecting cells using cellZone cz_solid_72
    - selected 2393 cell(s) with volume 0.00214451
Porosity region source72:
    selecting model: DarcyForchheimer
    creating porous zone: cz_solid_72
Selecting finite volume options model type explicitPorositySource
    Source: source73
    - selecting cells using cellZone cz_solid_73
    - selected 1997 cell(s) with volume 0.00214273
Porosity region source73:
    selecting model: DarcyForchheimer
    creating porous zone: cz_solid_73
Selecting finite volume options model type explicitPorositySource
    Source: source74
    - selecting cells using cellZone cz_solid_74
    - selected 1891 cell(s) with volume 0.00214432
Porosity region source74:
    selecting model: DarcyForchheimer
    creating porous zone: cz_solid_74
Selecting finite volume options model type explicitPorositySource
    Source: source75
    - selecting cells using cellZone cz_solid_75
    - selected 2119 cell(s) with volume 0.00214208
Porosity region source75:
    selecting model: DarcyForchheimer
    creating porous zone: cz_solid_75
Selecting finite volume options model type explicitPorositySource
    Source: source76
    - selecting cells using cellZone cz_solid_76
    - selected 2244 cell(s) with volume 0.00214197
Porosity region source76:
    selecting model: DarcyForchheimer
    creating porous zone: cz_solid_76
Selecting finite volume options model type explicitPorositySource
    Source: source77
    - selecting cells using cellZone cz_solid_77
    - selected 2361 cell(s) with volume 0.00214526
Porosity region source77:
    selecting model: DarcyForchheimer
    creating porous zone: cz_solid_77
Selecting finite volume options model type explicitPorositySource
    Source: source78
    - selecting cells using cellZone cz_solid_78
    - selected 2382 cell(s) with volume 0.00214521
Porosity region source78:
    selecting model: DarcyForchheimer
    creating porous zone: cz_solid_78
Selecting finite volume options model type explicitPorositySource
    Source: source79
    - selecting cells using cellZone cz_solid_79
    - selected 1803 cell(s) with volume 0.00213922
Porosity region source79:
    selecting model: DarcyForchheimer
    creating porous zone: cz_solid_79
Selecting finite volume options model type explicitPorositySource
    Source: source80
    - selecting cells using cellZone cz_solid_80
    - selected 2374 cell(s) with volume 0.00214583
Porosity region source80:
    selecting model: DarcyForchheimer
    creating porous zone: cz_solid_80
Selecting finite volume options model type explicitPorositySource
    Source: source81
    - selecting cells using cellZone cz_solid_81
    - selected 2467 cell(s) with volume 0.00214318
Porosity region source81:
    selecting model: DarcyForchheimer
    creating porous zone: cz_solid_81
Selecting finite volume options model type explicitPorositySource
    Source: source82
    - selecting cells using cellZone cz_solid_82
    - selected 2343 cell(s) with volume 0.00214637
Porosity region source82:
    selecting model: DarcyForchheimer
    creating porous zone: cz_solid_82
Selecting finite volume options model type explicitPorositySource
    Source: source83
    - selecting cells using cellZone cz_solid_83
    - selected 2093 cell(s) with volume 0.00214155
Porosity region source83:
    selecting model: DarcyForchheimer
    creating porous zone: cz_solid_83
Selecting finite volume options model type explicitPorositySource
    Source: source84
    - selecting cells using cellZone cz_solid_84
    - selected 2326 cell(s) with volume 0.00214539
Porosity region source84:
    selecting model: DarcyForchheimer
    creating porous zone: cz_solid_84
Selecting finite volume options model type explicitPorositySource
    Source: source85
    - selecting cells using cellZone cz_solid_85
    - selected 1877 cell(s) with volume 0.00214223
Porosity region source85:
    selecting model: DarcyForchheimer
    creating porous zone: cz_solid_85
Selecting finite volume options model type explicitPorositySource
    Source: source86
    - selecting cells using cellZone cz_solid_86
    - selected 2189 cell(s) with volume 0.00214575
Porosity region source86:
    selecting model: DarcyForchheimer
    creating porous zone: cz_solid_86
Selecting finite volume options model type explicitPorositySource
    Source: source87
    - selecting cells using cellZone cz_solid_87
    - selected 2109 cell(s) with volume 0.00214621
Porosity region source87:
    selecting model: DarcyForchheimer
    creating porous zone: cz_solid_87
Selecting finite volume options model type explicitPorositySource
    Source: source88
    - selecting cells using cellZone cz_solid_88
    - selected 1718 cell(s) with volume 0.00214449
Porosity region source88:
    selecting model: DarcyForchheimer
    creating porous zone: cz_solid_88
Selecting finite volume options model type explicitPorositySource
    Source: source89
    - selecting cells using cellZone cz_solid_89
    - selected 2091 cell(s) with volume 0.00214382
Porosity region source89:
    selecting model: DarcyForchheimer
    creating porous zone: cz_solid_89
Selecting finite volume options model type explicitPorositySource
    Source: source90
    - selecting cells using cellZone cz_solid_90
    - selected 2303 cell(s) with volume 0.00214608
Porosity region source90:
    selecting model: DarcyForchheimer
    creating porous zone: cz_solid_90
Selecting finite volume options model type explicitPorositySource
    Source: source91
    - selecting cells using cellZone cz_solid_91
    - selected 2374 cell(s) with volume 0.00214437
Porosity region source91:
    selecting model: DarcyForchheimer
    creating porous zone: cz_solid_91
Selecting finite volume options model type explicitPorositySource
    Source: source92
    - selecting cells using cellZone cz_solid_92
    - selected 2393 cell(s) with volume 0.00214482
Porosity region source92:
    selecting model: DarcyForchheimer
    creating porous zone: cz_solid_92
Selecting finite volume options model type explicitPorositySource
    Source: source93
    - selecting cells using cellZone cz_solid_93
    - selected 1991 cell(s) with volume 0.0021437
Porosity region source93:
    selecting model: DarcyForchheimer
    creating porous zone: cz_solid_93
Selecting finite volume options model type explicitPorositySource
    Source: source94
    - selecting cells using cellZone cz_solid_94
    - selected 1882 cell(s) with volume 0.00214588
Porosity region source94:
    selecting model: DarcyForchheimer
    creating porous zone: cz_solid_94
Selecting finite volume options model type explicitPorositySource
    Source: source95
    - selecting cells using cellZone cz_solid_95
    - selected 2119 cell(s) with volume 0.00214266
Porosity region source95:
    selecting model: DarcyForchheimer
    creating porous zone: cz_solid_95
Selecting finite volume options model type explicitPorositySource
    Source: source96
    - selecting cells using cellZone cz_solid_96
    - selected 2241 cell(s) with volume 0.00214278
Porosity region source96:
    selecting model: DarcyForchheimer
    creating porous zone: cz_solid_96
Selecting finite volume options model type explicitPorositySource
    Source: source97
    - selecting cells using cellZone cz_solid_97
    - selected 2361 cell(s) with volume 0.00214553
Porosity region source97:
    selecting model: DarcyForchheimer
    creating porous zone: cz_solid_97
Selecting finite volume options model type explicitPorositySource
    Source: source98
    - selecting cells using cellZone cz_solid_98
    - selected 2376 cell(s) with volume 0.00214588
Porosity region source98:
    selecting model: DarcyForchheimer
    creating porous zone: cz_solid_98
Selecting finite volume options model type explicitPorositySource
    Source: source99
    - selecting cells using cellZone cz_solid_99
    - selected 1797 cell(s) with volume 0.00214042
Porosity region source99:
    selecting model: DarcyForchheimer
    creating porous zone: cz_solid_99

Starting time loop

forces porousforces:
--> FOAM Warning : 
    From function Foam::labelHashSet Foam::polyBoundaryMesh::patchSet(const Foam::UList<Foam::wordRe>&, bool, bool) const
    in file meshes/polyMesh/polyBoundaryMesh/polyBoundaryMesh.C at line 798
    Cannot find any patch or group names matching solid_to_fluid
    Including porosity effects


surfaceFieldValue massFlowAtFilter_0:
    total faces  = 1950
    total area   = 0.101737




surfaceFieldValue massFlowAtFilter_1:
    total faces  = 1802
    total area   = 0.101671




surfaceFieldValue massFlowAtFilter_2:
    total faces  = 1953
    total area   = 0.101719




surfaceFieldValue massFlowAtFilter_3:
    total faces  = 1690
    total area   = 0.101676




surfaceFieldValue massFlowAtFilter_4:
    total faces  = 1822
    total area   = 0.101826




surfaceFieldValue massFlowAtFilter_5:
    total faces  = 1697
    total area   = 0.101757




surfaceFieldValue massFlowAtFilter_6:
    total faces  = 1814
    total area   = 0.10192




surfaceFieldValue massFlowAtFilter_7:
    total faces  = 1867
    total area   = 0.101728




surfaceFieldValue massFlowAtFilter_8:
    total faces  = 1711
    total area   = 0.101704




surfaceFieldValue massFlowAtFilter_9:
    total faces  = 1672
    total area   = 0.101728




surfaceFieldValue massFlowAtFilter_10:
    total faces  = 1868
    total area   = 0.10175




surfaceFieldValue massFlowAtFilter_11:
    total faces  = 1795
    total area   = 0.10172




surfaceFieldValue massFlowAtFilter_12:
    total faces  = 1844
    total area   = 0.101731




surfaceFieldValue massFlowAtFilter_13:
    total faces  = 1658
    total area   = 0.101729




surfaceFieldValue massFlowAtFilter_14:
    total faces  = 1794
    total area   = 0.101731




surfaceFieldValue massFlowAtFilter_15:
    total faces  = 1777
    total area   = 0.10176




surfaceFieldValue massFlowAtFilter_16:
    total faces  = 1747
    total area   = 0.101685




surfaceFieldValue massFlowAtFilter_17:
    total faces  = 1833
    total area   = 0.101824




surfaceFieldValue massFlowAtFilter_18:
    total faces  = 1834
    total area   = 0.101814




surfaceFieldValue massFlowAtFilter_19:
    total faces  = 1612
    total area   = 0.101649




surfaceFieldValue massFlowAtFilter_20:
    total faces  = 1932
    total area   = 0.101592




surfaceFieldValue massFlowAtFilter_21:
    total faces  = 1782
    total area   = 0.10163




surfaceFieldValue massFlowAtFilter_22:
    total faces  = 1932
    total area   = 0.10163




surfaceFieldValue massFlowAtFilter_23:
    total faces  = 1676
    total area   = 0.101632




surfaceFieldValue massFlowAtFilter_24:
    total faces  = 1806
    total area   = 0.101667




surfaceFieldValue massFlowAtFilter_25:
    total faces  = 1686
    total area   = 0.101586




surfaceFieldValue massFlowAtFilter_26:
    total faces  = 1798
    total area   = 0.101828




surfaceFieldValue massFlowAtFilter_27:
    total faces  = 1852
    total area   = 0.101637




surfaceFieldValue massFlowAtFilter_28:
    total faces  = 1698
    total area   = 0.101664




surfaceFieldValue massFlowAtFilter_29:
    total faces  = 1652
    total area   = 0.101687




surfaceFieldValue massFlowAtFilter_30:
    total faces  = 1858
    total area   = 0.10173




surfaceFieldValue massFlowAtFilter_31:
    total faces  = 1784
    total area   = 0.101692




surfaceFieldValue massFlowAtFilter_32:
    total faces  = 1822
    total area   = 0.101711




surfaceFieldValue massFlowAtFilter_33:
    total faces  = 1638
    total area   = 0.101703




surfaceFieldValue massFlowAtFilter_34:
    total faces  = 1784
    total area   = 0.1017




surfaceFieldValue massFlowAtFilter_35:
    total faces  = 1758
    total area   = 0.101626




surfaceFieldValue massFlowAtFilter_36:
    total faces  = 1736
    total area   = 0.101639




surfaceFieldValue massFlowAtFilter_37:
    total faces  = 1818
    total area   = 0.101632




surfaceFieldValue massFlowAtFilter_38:
    total faces  = 1812
    total area   = 0.101668




surfaceFieldValue massFlowAtFilter_39:
    total faces  = 1598
    total area   = 0.101592




surfaceFieldValue massFlowAtFilter_40:
    total faces  = 1980
    total area   = 0.101738




surfaceFieldValue massFlowAtFilter_41:
    total faces  = 1826
    total area   = 0.101674




surfaceFieldValue massFlowAtFilter_42:
    total faces  = 1980
    total area   = 0.101711




surfaceFieldValue massFlowAtFilter_43:
    total faces  = 1720
    total area   = 0.101669




surfaceFieldValue massFlowAtFilter_44:
    total faces  = 1852
    total area   = 0.101822




surfaceFieldValue massFlowAtFilter_45:
    total faces  = 1733
    total area   = 0.101797




surfaceFieldValue massFlowAtFilter_46:
    total faces  = 1844
    total area   = 0.101915




surfaceFieldValue massFlowAtFilter_47:
    total faces  = 1900
    total area   = 0.101726




surfaceFieldValue massFlowAtFilter_48:
    total faces  = 1744
    total area   = 0.101693




surfaceFieldValue massFlowAtFilter_49:
    total faces  = 1696
    total area   = 0.101733




surfaceFieldValue massFlowAtFilter_50:
    total faces  = 1904
    total area   = 0.101747




surfaceFieldValue massFlowAtFilter_51:
    total faces  = 1828
    total area   = 0.101713




surfaceFieldValue massFlowAtFilter_52:
    total faces  = 1868
    total area   = 0.101735




surfaceFieldValue massFlowAtFilter_53:
    total faces  = 1682
    total area   = 0.101731




surfaceFieldValue massFlowAtFilter_54:
    total faces  = 1830
    total area   = 0.101721




surfaceFieldValue massFlowAtFilter_55:
    total faces  = 1804
    total area   = 0.101746




surfaceFieldValue massFlowAtFilter_56:
    total faces  = 1780
    total area   = 0.101679




surfaceFieldValue massFlowAtFilter_57:
    total faces  = 1863
    total area   = 0.10184




surfaceFieldValue massFlowAtFilter_58:
    total faces  = 1858
    total area   = 0.101815




surfaceFieldValue massFlowAtFilter_59:
    total faces  = 1642
    total area   = 0.101649




surfaceFieldValue massFlowAtFilter_60:
    total faces  = 1980
    total area   = 0.101738




surfaceFieldValue massFlowAtFilter_61:
    total faces  = 1826
    total area   = 0.101668




surfaceFieldValue massFlowAtFilter_62:
    total faces  = 1980
    total area   = 0.101684




surfaceFieldValue massFlowAtFilter_63:
    total faces  = 1714
    total area   = 0.101662




surfaceFieldValue massFlowAtFilter_64:
    total faces  = 1849
    total area   = 0.101796




surfaceFieldValue massFlowAtFilter_65:
    total faces  = 1718
    total area   = 0.101779




surfaceFieldValue massFlowAtFilter_66:
    total faces  = 1849
    total area   = 0.101823




surfaceFieldValue massFlowAtFilter_67:
    total faces  = 1910
    total area   = 0.101728




surfaceFieldValue massFlowAtFilter_68:
    total faces  = 1736
    total area   = 0.101705




surfaceFieldValue massFlowAtFilter_69:
    total faces  = 1693
    total area   = 0.101725




surfaceFieldValue massFlowAtFilter_70:
    total faces  = 1904
    total area   = 0.101735




surfaceFieldValue massFlowAtFilter_71:
    total faces  = 1828
    total area   = 0.101715




surfaceFieldValue massFlowAtFilter_72:
    total faces  = 1865
    total area   = 0.101723




surfaceFieldValue massFlowAtFilter_73:
    total faces  = 1673
    total area   = 0.101728




surfaceFieldValue massFlowAtFilter_74:
    total faces  = 1828
    total area   = 0.101716




surfaceFieldValue massFlowAtFilter_75:
    total faces  = 1805
    total area   = 0.10175




surfaceFieldValue massFlowAtFilter_76:
    total faces  = 1771
    total area   = 0.101676




surfaceFieldValue massFlowAtFilter_77:
    total faces  = 1863
    total area   = 0.101839




surfaceFieldValue massFlowAtFilter_78:
    total faces  = 1861
    total area   = 0.101805




surfaceFieldValue massFlowAtFilter_79:
    total faces  = 1630
    total area   = 0.10164




surfaceFieldValue massFlowAtFilter_80:
    total faces  = 1980
    total area   = 0.101655




surfaceFieldValue massFlowAtFilter_81:
    total faces  = 1832
    total area   = 0.101554




surfaceFieldValue massFlowAtFilter_82:
    total faces  = 1985
    total area   = 0.101593




surfaceFieldValue massFlowAtFilter_83:
    total faces  = 1719
    total area   = 0.101557




surfaceFieldValue massFlowAtFilter_84:
    total faces  = 1849
    total area   = 0.101648




surfaceFieldValue massFlowAtFilter_85:
    total faces  = 1724
    total area   = 0.101629




surfaceFieldValue massFlowAtFilter_86:
    total faces  = 1856
    total area   = 0.101709




surfaceFieldValue massFlowAtFilter_87:
    total faces  = 1917
    total area   = 0.101618




surfaceFieldValue massFlowAtFilter_88:
    total faces  = 1743
    total area   = 0.101588




surfaceFieldValue massFlowAtFilter_89:
    total faces  = 1699
    total area   = 0.101634




surfaceFieldValue massFlowAtFilter_90:
    total faces  = 1910
    total area   = 0.10164




surfaceFieldValue massFlowAtFilter_91:
    total faces  = 1833
    total area   = 0.101604




surfaceFieldValue massFlowAtFilter_92:
    total faces  = 1865
    total area   = 0.101649




surfaceFieldValue massFlowAtFilter_93:
    total faces  = 1679
    total area   = 0.101623




surfaceFieldValue massFlowAtFilter_94:
    total faces  = 1835
    total area   = 0.101576




surfaceFieldValue massFlowAtFilter_95:
    total faces  = 1805
    total area   = 0.101634




surfaceFieldValue massFlowAtFilter_96:
    total faces  = 1776
    total area   = 0.101578




surfaceFieldValue massFlowAtFilter_97:
    total faces  = 1863
    total area   = 0.101661




surfaceFieldValue massFlowAtFilter_98:
    total faces  = 1867
    total area   = 0.101635




surfaceFieldValue massFlowAtFilter_99:
    total faces  = 1636
    total area   = 0.101546


Time = 1

DILUPBiCG:  Solving for Ux, Initial residual = 1, Final residual = 3.38874e-06, No Iterations 6
DILUPBiCG:  Solving for Uy, Initial residual = 1, Final residual = 2.53844e-06, No Iterations 7
DILUPBiCG:  Solving for Uz, Initial residual = 1, Final residual = 6.7357e-06, No Iterations 6
DICPCG:  Solving for p, Initial residual = 1, Final residual = 0.0940406, No Iterations 326
DICPCG:  Solving for p, Initial residual = 0.00341081, Final residual = 0.000236687, No Iterations 4
DICPCG:  Solving for p, Initial residual = 0.000479618, Final residual = 4.69555e-05, No Iterations 28
time step continuity errors : sum local = 0.0440326, global = -0.000530022, cumulative = -0.000530022
DILUPBiCG:  Solving for epsilon, Initial residual = 0.0522986, Final residual = 9.86666e-06, No Iterations 3
DILUPBiCG:  Solving for k, Initial residual = 1, Final residual = 5.84241e-07, No Iterations 6
ExecutionTime = 6.65 s  ClockTime = 7 s

Time = 2

DILUPBiCG:  Solving for Ux, Initial residual = 0.000118615, Final residual = 3.04278e-06, No Iterations 2
DILUPBiCG:  Solving for Uy, Initial residual = 5.01706e-05, Final residual = 9.22794e-06, No Iterations 1
DILUPBiCG:  Solving for Uz, Initial residual = 0.000107581, Final residual = 2.10557e-06, No Iterations 2
DICPCG:  Solving for p, Initial residual = 0.0138519, Final residual = 0.00138068, No Iterations 114
DICPCG:  Solving for p, Initial residual = 0.0058259, Final residual = 0.000559442, No Iterations 263
DICPCG:  Solving for p, Initial residual = 0.00533778, Final residual = 0.000526314, No Iterations 11
time step continuity errors : sum local = 0.0576687, global = -0.000350098, cumulative = -0.00088012
DILUPBiCG:  Solving for epsilon, Initial residual = 0.0137695, Final residual = 7.19875e-07, No Iterations 4
DILUPBiCG:  Solving for k, Initial residual = 0.521779, Final residual = 4.1483e-07, No Iterations 6
ExecutionTime = 11.24 s  ClockTime = 11 s

Time = 3

DILUPBiCG:  Solving for Ux, Initial residual = 1.73653e-05, Final residual = 2.95157e-06, No Iterations 1
DILUPBiCG:  Solving for Uy, Initial residual = 1.02713e-05, Final residual = 1.96258e-06, No Iterations 1
DILUPBiCG:  Solving for Uz, Initial residual = 2.59453e-05, Final residual = 7.74393e-06, No Iterations 1
DICPCG:  Solving for p, Initial residual = 0.019066, Final residual = 0.00187778, No Iterations 301
DICPCG:  Solving for p, Initial residual = 0.00728621, Final residual = 0.000585514, No Iterations 4
DICPCG:  Solving for p, Initial residual = 0.00102505, Final residual = 0.000101305, No Iterations 47
time step continuity errors : sum local = 0.0487543, global = 6.06481e-05, cumulative = -0.000819472
DILUPBiCG:  Solving for epsilon, Initial residual = 0.0178003, Final residual = 8.75377e-06, No Iterations 3
DILUPBiCG:  Solving for k, Initial residual = 0.261582, Final residual = 1.09895e-07, No Iterations 6
ExecutionTime = 15.42 s  ClockTime = 16 s

Time = 4

DILUPBiCG:  Solving for Ux, Initial residual = 4.86605e-06, Final residual = 4.86605e-06, No Iterations 0
DILUPBiCG:  Solving for Uy, Initial residual = 1.8097e-06, Final residual = 1.8097e-06, No Iterations 0
DILUPBiCG:  Solving for Uz, Initial residual = 6.09894e-06, Final residual = 6.09894e-06, No Iterations 0
DICPCG:  Solving for p, Initial residual = 0.0819509, Final residual = 0.00808582, No Iterations 305
DICPCG:  Solving for p, Initial residual = 0.00529234, Final residual = 0.00041016, No Iterations 4
DICPCG:  Solving for p, Initial residual = 0.000736674, Final residual = 7.27251e-05, No Iterations 43
time step continuity errors : sum local = 0.0321857, global = -6.97092e-05, cumulative = -0.000889181
DILUPBiCG:  Solving for epsilon, Initial residual = 0.0168392, Final residual = 5.19325e-06, No Iterations 3
DILUPBiCG:  Solving for k, Initial residual = 0.153049, Final residual = 5.34555e-07, No Iterations 6
ExecutionTime = 19.52 s  ClockTime = 20 s

Time = 5

DILUPBiCG:  Solving for Ux, Initial residual = 1.42657e-05, Final residual = 2.84134e-06, No Iterations 1
DILUPBiCG:  Solving for Uy, Initial residual = 7.64354e-06, Final residual = 7.64354e-06, No Iterations 0
DILUPBiCG:  Solving for Uz, Initial residual = 1.32608e-05, Final residual = 3.18946e-06, No Iterations 1
DICPCG:  Solving for p, Initial residual = 0.0221017, Final residual = 0.00220709, No Iterations 46
DICPCG:  Solving for p, Initial residual = 0.00657392, Final residual = 0.000655036, No Iterations 276
DICPCG:  Solving for p, Initial residual = 0.00213291, Final residual = 0.00021254, No Iterations 4
time step continuity errors : sum local = 0.0592063, global = 0.000785576, cumulative = -0.000103605
DILUPBiCG:  Solving for epsilon, Initial residual = 0.0141841, Final residual = 3.99048e-06, No Iterations 3
DILUPBiCG:  Solving for k, Initial residual = 0.109319, Final residual = 4.25524e-07, No Iterations 5
ExecutionTime = 23.44 s  ClockTime = 24 s

Time = 6

DILUPBiCG:  Solving for Ux, Initial residual = 1.78664e-05, Final residual = 3.98736e-06, No Iterations 1
DILUPBiCG:  Solving for Uy, Initial residual = 1.11708e-05, Final residual = 2.21038e-06, No Iterations 1
DILUPBiCG:  Solving for Uz, Initial residual = 1.48241e-05, Final residual = 4.44102e-06, No Iterations 1
DICPCG:  Solving for p, Initial residual = 0.0255049, Final residual = 0.0025292, No Iterations 294
DICPCG:  Solving for p, Initial residual = 0.00810346, Final residual = 0.000807845, No Iterations 6
DICPCG:  Solving for p, Initial residual = 0.00121951, Final residual = 0.000117474, No Iterations 55
time step continuity errors : sum local = 0.0413878, global = -0.000315336, cumulative = -0.000418941
DILUPBiCG:  Solving for epsilon, Initial residual = 0.0132313, Final residual = 4.78597e-06, No Iterations 3
DILUPBiCG:  Solving for k, Initial residual = 0.0926989, Final residual = 4.91039e-07, No Iterations 5
ExecutionTime = 27.65 s  ClockTime = 28 s

Time = 7

DILUPBiCG:  Solving for Ux, Initial residual = 1.15456e-05, Final residual = 3.90653e-07, No Iterations 2
DILUPBiCG:  Solving for Uy, Initial residual = 3.60235e-06, Final residual = 3.60235e-06, No Iterations 0
DILUPBiCG:  Solving for Uz, Initial residual = 7.27538e-06, Final residual = 7.27538e-06, No Iterations 0
DICPCG:  Solving for p, Initial residual = 0.0862989, Final residual = 0.00814727, No Iterations 297
DICPCG:  Solving for p, Initial residual = 0.0047869, Final residual = 0.000476092, No Iterations 4
DICPCG:  Solving for p, Initial residual = 0.000714744, Final residual = 6.99145e-05, No Iterations 50
time step continuity errors : sum local = 0.027057, global = -4.90942e-05, cumulative = -0.000468035
DILUPBiCG:  Solving for epsilon, Initial residual = 0.0119865, Final residual = 3.77451e-06, No Iterations 3
DILUPBiCG:  Solving for k, Initial residual = 0.0758451, Final residual = 4.30543e-08, No Iterations 6
ExecutionTime = 31.89 s  ClockTime = 32 s

Time = 8

DILUPBiCG:  Solving for Ux, Initial residual = 1.54754e-05, Final residual = 3.05333e-06, No Iterations 1
DILUPBiCG:  Solving for Uy, Initial residual = 9.45656e-06, Final residual = 9.45656e-06, No Iterations 0
DILUPBiCG:  Solving for Uz, Initial residual = 1.49975e-05, Final residual = 3.49056e-06, No Iterations 1
DICPCG:  Solving for p, Initial residual = 0.0236653, Final residual = 0.00234556, No Iterations 295
DICPCG:  Solving for p, Initial residual = 0.00363813, Final residual = 0.000362442, No Iterations 9
DICPCG:  Solving for p, Initial residual = 0.000594278, Final residual = 5.6905e-05, No Iterations 50
time step continuity errors : sum local = 0.0161649, global = -0.000177259, cumulative = -0.000645295
DILUPBiCG:  Solving for epsilon, Initial residual = 0.0114847, Final residual = 6.51838e-06, No Iterations 3
DILUPBiCG:  Solving for k, Initial residual = 0.0637471, Final residual = 3.90105e-08, No Iterations 6
ExecutionTime = 36.22 s  ClockTime = 36 s

Time = 9

DILUPBiCG:  Solving for Ux, Initial residual = 6.67317e-06, Final residual = 6.67317e-06, No Iterations 0
DILUPBiCG:  Solving for Uy, Initial residual = 1.15561e-05, Final residual = 2.30225e-06, No Iterations 1
DILUPBiCG:  Solving for Uz, Initial residual = 7.86203e-06, Final residual = 7.86203e-06, No Iterations 0
DICPCG:  Solving for p, Initial residual = 0.0202274, Final residual = 0.00193857, No Iterations 290
DICPCG:  Solving for p, Initial residual = 0.00688132, Final residual = 0.000674078, No Iterations 13
DICPCG:  Solving for p, Initial residual = 0.00111223, Final residual = 0.00010523, No Iterations 45
time step continuity errors : sum local = 0.0226373, global = 0.000253458, cumulative = -0.000391837
DILUPBiCG:  Solving for epsilon, Initial residual = 0.0125584, Final residual = 5.34354e-06, No Iterations 3
DILUPBiCG:  Solving for k, Initial residual = 0.0574349, Final residual = 5.6365e-08, No Iterations 6
ExecutionTime = 40.49 s  ClockTime = 41 s

Time = 10

DILUPBiCG:  Solving for Ux, Initial residual = 3.40109e-06, Final residual = 3.40109e-06, No Iterations 0
DILUPBiCG:  Solving for Uy, Initial residual = 2.14286e-06, Final residual = 2.14286e-06, No Iterations 0
DILUPBiCG:  Solving for Uz, Initial residual = 4.3261e-06, Final residual = 4.3261e-06, No Iterations 0
DICPCG:  Solving for p, Initial residual = 0.0428115, Final residual = 0.0040342, No Iterations 296
DICPCG:  Solving for p, Initial residual = 0.00481234, Final residual = 0.000464198, No Iterations 5
DICPCG:  Solving for p, Initial residual = 0.000687689, Final residual = 6.86471e-05, No Iterations 51
time step continuity errors : sum local = 0.0170958, global = 8.55634e-05, cumulative = -0.000306274
DILUPBiCG:  Solving for epsilon, Initial residual = 0.0108386, Final residual = 3.1954e-06, No Iterations 3
DILUPBiCG:  Solving for k, Initial residual = 0.0514406, Final residual = 4.81323e-08, No Iterations 6
ExecutionTime = 44.62 s  ClockTime = 45 s

Time = 11

DILUPBiCG:  Solving for Ux, Initial residual = 4.68858e-06, Final residual = 4.68858e-06, No Iterations 0
DILUPBiCG:  Solving for Uy, Initial residual = 2.34237e-06, Final residual = 2.34237e-06, No Iterations 0
DILUPBiCG:  Solving for Uz, Initial residual = 4.24148e-06, Final residual = 4.24148e-06, No Iterations 0
DICPCG:  Solving for p, Initial residual = 0.0248422, Final residual = 0.00248132, No Iterations 297
DICPCG:  Solving for p, Initial residual = 0.00340222, Final residual = 0.000331781, No Iterations 5
DICPCG:  Solving for p, Initial residual = 0.000494337, Final residual = 4.76859e-05, No Iterations 53
time step continuity errors : sum local = 0.00958999, global = 4.15123e-05, cumulative = -0.000264762
DILUPBiCG:  Solving for epsilon, Initial residual = 0.00965665, Final residual = 2.67102e-06, No Iterations 3
DILUPBiCG:  Solving for k, Initial residual = 0.0473677, Final residual = 5.26184e-08, No Iterations 6
ExecutionTime = 48.77 s  ClockTime = 49 s

Time = 12

DILUPBiCG:  Solving for Ux, Initial residual = 6.20228e-06, Final residual = 6.20228e-06, No Iterations 0
DILUPBiCG:  Solving for Uy, Initial residual = 5.07779e-06, Final residual = 5.07779e-06, No Iterations 0
DILUPBiCG:  Solving for Uz, Initial residual = 5.25128e-06, Final residual = 5.25128e-06, No Iterations 0
DICPCG:  Solving for p, Initial residual = 0.010052, Final residual = 0.000980564, No Iterations 45
DICPCG:  Solving for p, Initial residual = 0.00220507, Final residual = 0.00021, No Iterations 278
DICPCG:  Solving for p, Initial residual = 0.000907488, Final residual = 8.86979e-05, No Iterations 14
time step continuity errors : sum local = 0.00960428, global = -6.96589e-05, cumulative = -0.00033442
DILUPBiCG:  Solving for epsilon, Initial residual = 0.00912697, Final residual = 3.06909e-06, No Iterations 3
DILUPBiCG:  Solving for k, Initial residual = 0.0447997, Final residual = 5.62807e-08, No Iterations 6
ExecutionTime = 52.77 s  ClockTime = 53 s

Time = 13

DILUPBiCG:  Solving for Ux, Initial residual = 6.032e-06, Final residual = 6.032e-06, No Iterations 0
DILUPBiCG:  Solving for Uy, Initial residual = 6.01047e-06, Final residual = 6.01047e-06, No Iterations 0
DILUPBiCG:  Solving for Uz, Initial residual = 5.43329e-06, Final residual = 5.43329e-06, No Iterations 0
DICPCG:  Solving for p, Initial residual = 0.0112324, Final residual = 0.0010524, No Iterations 291
DICPCG:  Solving for p, Initial residual = 0.0359638, Final residual = 0.00343707, No Iterations 18
DICPCG:  Solving for p, Initial residual = 0.00644292, Final residual = 0.000633778, No Iterations 36
time step continuity errors : sum local = 0.00704056, global = -6.21103e-05, cumulative = -0.000396531
DILUPBiCG:  Solving for epsilon, Initial residual = 0.00896891, Final residual = 4.70304e-06, No Iterations 3
DILUPBiCG:  Solving for k, Initial residual = 0.0425659, Final residual = 4.62469e-08, No Iterations 6
ExecutionTime = 56.82 s  ClockTime = 57 s

Time = 14

DILUPBiCG:  Solving for Ux, Initial residual = 4.51328e-06, Final residual = 4.51328e-06, No Iterations 0
DILUPBiCG:  Solving for Uy, Initial residual = 4.88962e-06, Final residual = 4.88962e-06, No Iterations 0
DILUPBiCG:  Solving for Uz, Initial residual = 4.34842e-06, Final residual = 4.34842e-06, No Iterations 0
DICPCG:  Solving for p, Initial residual = 0.0148053, Final residual = 0.00140148, No Iterations 288
DICPCG:  Solving for p, Initial residual = 0.0083572, Final residual = 0.000824311, No Iterations 6
DICPCG:  Solving for p, Initial residual = 0.00121298, Final residual = 0.000116385, No Iterations 54
time step continuity errors : sum local = 0.00763625, global = -8.32741e-05, cumulative = -0.000479805
DILUPBiCG:  Solving for epsilon, Initial residual = 0.00897471, Final residual = 4.49041e-06, No Iterations 3
DILUPBiCG:  Solving for k, Initial residual = 0.0402574, Final residual = 3.53287e-08, No Iterations 6
ExecutionTime = 60.88 s  ClockTime = 61 s

Time = 15

DILUPBiCG:  Solving for Ux, Initial residual = 2.81815e-06, Final residual = 2.81815e-06, No Iterations 0
DILUPBiCG:  Solving for Uy, Initial residual = 2.36476e-06, Final residual = 2.36476e-06, No Iterations 0
DILUPBiCG:  Solving for Uz, Initial residual = 2.93121e-06, Final residual = 2.93121e-06, No Iterations 0
DICPCG:  Solving for p, Initial residual = 0.0259697, Final residual = 0.00255163, No Iterations 297
DICPCG:  Solving for p, Initial residual = 0.00519438, Final residual = 0.000499399, No Iterations 5
DICPCG:  Solving for p, Initial residual = 0.000738968, Final residual = 7.09071e-05, No Iterations 54
time step continuity errors : sum local = 0.00699255, global = -5.63689e-05, cumulative = -0.000536174
DILUPBiCG:  Solving for epsilon, Initial residual = 0.00894517, Final residual = 3.09303e-06, No Iterations 3
DILUPBiCG:  Solving for k, Initial residual = 0.0378808, Final residual = 2.63119e-08, No Iterations 6
ExecutionTime = 65.04 s  ClockTime = 65 s

Time = 16

DILUPBiCG:  Solving for Ux, Initial residual = 2.30765e-06, Final residual = 2.30765e-06, No Iterations 0
DILUPBiCG:  Solving for Uy, Initial residual = 6.8614e-07, Final residual = 6.8614e-07, No Iterations 0
DILUPBiCG:  Solving for Uz, Initial residual = 2.37398e-06, Final residual = 2.37398e-06, No Iterations 0
DICPCG:  Solving for p, Initial residual = 0.0635153, Final residual = 0.00607772, No Iterations 297
DICPCG:  Solving for p, Initial residual = 0.00373185, Final residual = 0.000351433, No Iterations 5
DICPCG:  Solving for p, Initial residual = 0.00053182, Final residual = 5.2208e-05, No Iterations 53
time step continuity errors : sum local = 0.00487524, global = -4.23837e-05, cumulative = -0.000578557
DILUPBiCG:  Solving for epsilon, Initial residual = 0.00881753, Final residual = 2.92022e-06, No Iterations 3
DILUPBiCG:  Solving for k, Initial residual = 0.035535, Final residual = 2.18259e-08, No Iterations 6
ExecutionTime = 69.17 s  ClockTime = 69 s

Time = 17

DILUPBiCG:  Solving for Ux, Initial residual = 2.69859e-06, Final residual = 2.69859e-06, No Iterations 0
DILUPBiCG:  Solving for Uy, Initial residual = 2.08213e-06, Final residual = 2.08213e-06, No Iterations 0
DILUPBiCG:  Solving for Uz, Initial residual = 2.63574e-06, Final residual = 2.63574e-06, No Iterations 0
DICPCG:  Solving for p, Initial residual = 0.0118358, Final residual = 0.00113729, No Iterations 290
DICPCG:  Solving for p, Initial residual = 0.00244943, Final residual = 0.000242404, No Iterations 17
DICPCG:  Solving for p, Initial residual = 0.000465336, Final residual = 4.48925e-05, No Iterations 42
time step continuity errors : sum local = 0.00281934, global = -1.37037e-05, cumulative = -0.000592261
DILUPBiCG:  Solving for epsilon, Initial residual = 0.00861291, Final residual = 2.91274e-06, No Iterations 3
DILUPBiCG:  Solving for k, Initial residual = 0.0333238, Final residual = 2.13502e-08, No Iterations 6
ExecutionTime = 73.25 s  ClockTime = 73 s

Time = 18

DILUPBiCG:  Solving for Ux, Initial residual = 2.66396e-06, Final residual = 2.66396e-06, No Iterations 0
DILUPBiCG:  Solving for Uy, Initial residual = 2.48067e-06, Final residual = 2.48067e-06, No Iterations 0
DILUPBiCG:  Solving for Uz, Initial residual = 2.80014e-06, Final residual = 2.80014e-06, No Iterations 0
DICPCG:  Solving for p, Initial residual = 0.00961304, Final residual = 0.000930598, No Iterations 97
DICPCG:  Solving for p, Initial residual = 0.00244039, Final residual = 0.000233431, No Iterations 278
DICPCG:  Solving for p, Initial residual = 0.00281521, Final residual = 0.000273865, No Iterations 4
time step continuity errors : sum local = 0.00649922, global = 0.000134402, cumulative = -0.000457859
DILUPBiCG:  Solving for epsilon, Initial residual = 0.00840843, Final residual = 2.9587e-06, No Iterations 3
DILUPBiCG:  Solving for k, Initial residual = 0.0313906, Final residual = 2.51744e-08, No Iterations 6
ExecutionTime = 77.57 s  ClockTime = 78 s

Time = 19

DILUPBiCG:  Solving for Ux, Initial residual = 2.21058e-06, Final residual = 2.21058e-06, No Iterations 0
DILUPBiCG:  Solving for Uy, Initial residual = 2.05035e-06, Final residual = 2.05035e-06, No Iterations 0
DILUPBiCG:  Solving for Uz, Initial residual = 2.59068e-06, Final residual = 2.59068e-06, No Iterations 0
DICPCG:  Solving for p, Initial residual = 0.0114254, Final residual = 0.00112937, No Iterations 287
DICPCG:  Solving for p, Initial residual = 0.0147038, Final residual = 0.00145061, No Iterations 18
DICPCG:  Solving for p, Initial residual = 0.00257764, Final residual = 0.000249052, No Iterations 58
time step continuity errors : sum local = 0.0032351, global = 4.99266e-05, cumulative = -0.000407932
DILUPBiCG:  Solving for epsilon, Initial residual = 0.00821929, Final residual = 3.02221e-06, No Iterations 3
DILUPBiCG:  Solving for k, Initial residual = 0.0297818, Final residual = 8.12347e-07, No Iterations 4
ExecutionTime = 81.7 s  ClockTime = 82 s

Time = 20

DILUPBiCG:  Solving for Ux, Initial residual = 1.7405e-06, Final residual = 1.7405e-06, No Iterations 0
DILUPBiCG:  Solving for Uy, Initial residual = 1.23082e-06, Final residual = 1.23082e-06, No Iterations 0
DILUPBiCG:  Solving for Uz, Initial residual = 2.23832e-06, Final residual = 2.23832e-06, No Iterations 0
DICPCG:  Solving for p, Initial residual = 0.0159169, Final residual = 0.00158732, No Iterations 297
DICPCG:  Solving for p, Initial residual = 0.00632817, Final residual = 0.000584107, No Iterations 6
DICPCG:  Solving for p, Initial residual = 0.000885944, Final residual = 8.56408e-05, No Iterations 57
time step continuity errors : sum local = 0.00276964, global = 4.19587e-05, cumulative = -0.000365973
DILUPBiCG:  Solving for epsilon, Initial residual = 0.00805078, Final residual = 3.06046e-06, No Iterations 3
DILUPBiCG:  Solving for k, Initial residual = 0.0284869, Final residual = 8.17237e-07, No Iterations 4
ExecutionTime = 85.86 s  ClockTime = 86 s

forces porousforces write:
    sum of forces:
        pressure : (0 0 0)
        viscous  : (0 0 0)
        porous   : (67986 -3.06562e-13 53407.9)
    sum of moments:
        pressure : (0 0 0)
        viscous  : (0 0 0)
        porous   : (47423 8467.94 -60329)

volFieldValue volFieldValue_0 write:
    volIntegrate(cz_solid_0) of U = (1.31943e-09 -3.46974e-09 -3.27348e-09)

surfaceFieldValue massFlowAtFilter_0 write:
    sum(fz_solid_0) of phi = 1.08675e-08

volFieldValue volFieldValue_1 write:
    volIntegrate(cz_solid_1) of U = (2.75081e-10 -3.11846e-09 -2.91673e-09)

surfaceFieldValue massFlowAtFilter_1 write:
    sum(fz_solid_1) of phi = 2.40567e-05

volFieldValue volFieldValue_2 write:
    volIntegrate(cz_solid_2) of U = (-5.5006e-10 -3.09132e-09 -2.49984e-09)

surfaceFieldValue massFlowAtFilter_2 write:
    sum(fz_solid_2) of phi = 5.64476e-07

volFieldValue volFieldValue_3 write:
    volIntegrate(cz_solid_3) of U = (-1.23075e-09 -2.94128e-09 -1.90436e-09)

surfaceFieldValue massFlowAtFilter_3 write:
    sum(fz_solid_3) of phi = -3.08537e-05

volFieldValue volFieldValue_4 write:
    volIntegrate(cz_solid_4) of U = (-1.81419e-09 -2.88701e-09 -1.30798e-09)

surfaceFieldValue massFlowAtFilter_4 write:
    sum(fz_solid_4) of phi = -2.19776e-05

volFieldValue volFieldValue_5 write:
    volIntegrate(cz_solid_5) of U = (-2.32594e-09 -2.85923e-09 -6.39046e-10)

surfaceFieldValue massFlowAtFilter_5 write:
    sum(fz_solid_5) of phi = -4.96006e-05

volFieldValue volFieldValue_6 write:
    volIntegrate(cz_solid_6) of U = (-2.7748e-09 -2.8395e-09 1.65468e-10)

surfaceFieldValue massFlowAtFilter_6 write:
    sum(fz_solid_6) of phi = -3.52346e-05

volFieldValue volFieldValue_7 write:
    volIntegrate(cz_solid_7) of U = (-3.01717e-09 -2.94826e-09 1.23453e-09)

surfaceFieldValue massFlowAtFilter_7 write:
    sum(fz_solid_7) of phi = -3.94093e-05

volFieldValue volFieldValue_8 write:
    volIntegrate(cz_solid_8) of U = (-2.93212e-09 -3.18652e-09 2.33328e-09)

surfaceFieldValue massFlowAtFilter_8 write:
    sum(fz_solid_8) of phi = 1.20935e-05

volFieldValue volFieldValue_9 write:
    volIntegrate(cz_solid_9) of U = (-2.40359e-09 -3.40333e-09 3.52064e-09)

surfaceFieldValue massFlowAtFilter_9 write:
    sum(fz_solid_9) of phi = -6.37919e-05

volFieldValue volFieldValue_10 write:
    volIntegrate(cz_solid_10) of U = (-1.26678e-09 -3.72576e-09 4.62773e-09)

surfaceFieldValue massFlowAtFilter_10 write:
    sum(fz_solid_10) of phi = 1.75611e-05

volFieldValue volFieldValue_11 write:
    volIntegrate(cz_solid_11) of U = (8.1608e-11 -3.95424e-09 5.31895e-09)

surfaceFieldValue massFlowAtFilter_11 write:
    sum(fz_solid_11) of phi = -4.55864e-05

volFieldValue volFieldValue_12 write:
    volIntegrate(cz_solid_12) of U = (1.92426e-09 -4.25227e-09 5.57188e-09)

surfaceFieldValue massFlowAtFilter_12 write:
    sum(fz_solid_12) of phi = -0.000164253

volFieldValue volFieldValue_13 write:
    volIntegrate(cz_solid_13) of U = (3.78756e-09 -4.58153e-09 5.0526e-09)

surfaceFieldValue massFlowAtFilter_13 write:
    sum(fz_solid_13) of phi = 4.58538e-05

volFieldValue volFieldValue_14 write:
    volIntegrate(cz_solid_14) of U = (5.37453e-09 -5.20288e-09 3.86815e-09)

surfaceFieldValue massFlowAtFilter_14 write:
    sum(fz_solid_14) of phi = -7.57662e-05

volFieldValue volFieldValue_15 write:
    volIntegrate(cz_solid_15) of U = (6.30846e-09 -5.40091e-09 2.02528e-09)

surfaceFieldValue massFlowAtFilter_15 write:
    sum(fz_solid_15) of phi = 5.55672e-05

volFieldValue volFieldValue_16 write:
    volIntegrate(cz_solid_16) of U = (6.2128e-09 -5.27248e-09 4.71248e-11)

surfaceFieldValue massFlowAtFilter_16 write:
    sum(fz_solid_16) of phi = -9.29266e-05

volFieldValue volFieldValue_17 write:
    volIntegrate(cz_solid_17) of U = (5.32971e-09 -4.94791e-09 -1.66539e-09)

surfaceFieldValue massFlowAtFilter_17 write:
    sum(fz_solid_17) of phi = -1.09217e-06

volFieldValue volFieldValue_18 write:
    volIntegrate(cz_solid_18) of U = (4.09329e-09 -4.52342e-09 -2.70942e-09)

surfaceFieldValue massFlowAtFilter_18 write:
    sum(fz_solid_18) of phi = 6.54427e-05

volFieldValue volFieldValue_19 write:
    volIntegrate(cz_solid_19) of U = (2.65613e-09 -3.9883e-09 -3.26074e-09)

surfaceFieldValue massFlowAtFilter_19 write:
    sum(fz_solid_19) of phi = 5.73244e-05

volFieldValue volFieldValue_20 write:
    volIntegrate(cz_solid_20) of U = (1.1024e-09 -6.19397e-09 -2.44056e-09)

surfaceFieldValue massFlowAtFilter_20 write:
    sum(fz_solid_20) of phi = -1.20315e-05

volFieldValue volFieldValue_21 write:
    volIntegrate(cz_solid_21) of U = (2.59303e-10 -5.61655e-09 -2.18151e-09)

surfaceFieldValue massFlowAtFilter_21 write:
    sum(fz_solid_21) of phi = 1.78491e-05

volFieldValue volFieldValue_22 write:
    volIntegrate(cz_solid_22) of U = (-3.84171e-10 -5.58496e-09 -1.86528e-09)

surfaceFieldValue massFlowAtFilter_22 write:
    sum(fz_solid_22) of phi = 5.57432e-06

volFieldValue volFieldValue_23 write:
    volIntegrate(cz_solid_23) of U = (-9.14018e-10 -5.24828e-09 -1.39939e-09)

surfaceFieldValue massFlowAtFilter_23 write:
    sum(fz_solid_23) of phi = -1.45783e-05

volFieldValue volFieldValue_24 write:
    volIntegrate(cz_solid_24) of U = (-1.35026e-09 -5.20986e-09 -9.28625e-10)

surfaceFieldValue massFlowAtFilter_24 write:
    sum(fz_solid_24) of phi = -2.39331e-05

volFieldValue volFieldValue_25 write:
    volIntegrate(cz_solid_25) of U = (-1.73773e-09 -5.08394e-09 -4.18741e-10)

surfaceFieldValue massFlowAtFilter_25 write:
    sum(fz_solid_25) of phi = -5.98088e-06

volFieldValue volFieldValue_26 write:
    volIntegrate(cz_solid_26) of U = (-2.07531e-09 -5.01927e-09 2.05004e-10)

surfaceFieldValue massFlowAtFilter_26 write:
    sum(fz_solid_26) of phi = -6.62841e-06

volFieldValue volFieldValue_27 write:
    volIntegrate(cz_solid_27) of U = (-2.23718e-09 -5.22444e-09 1.0379e-09)

surfaceFieldValue massFlowAtFilter_27 write:
    sum(fz_solid_27) of phi = 4.51985e-06

volFieldValue volFieldValue_28 write:
    volIntegrate(cz_solid_28) of U = (-2.14332e-09 -5.58145e-09 1.88091e-09)

surfaceFieldValue massFlowAtFilter_28 write:
    sum(fz_solid_28) of phi = -1.14288e-05

volFieldValue volFieldValue_29 write:
    volIntegrate(cz_solid_29) of U = (-1.69605e-09 -6.01169e-09 2.77541e-09)

surfaceFieldValue massFlowAtFilter_29 write:
    sum(fz_solid_29) of phi = 4.3295e-05

volFieldValue volFieldValue_30 write:
    volIntegrate(cz_solid_30) of U = (-7.71975e-10 -6.76167e-09 3.58833e-09)

surfaceFieldValue massFlowAtFilter_30 write:
    sum(fz_solid_30) of phi = 2.47545e-05

volFieldValue volFieldValue_31 write:
    volIntegrate(cz_solid_31) of U = (2.73995e-10 -7.60903e-09 4.052e-09)

surfaceFieldValue massFlowAtFilter_31 write:
    sum(fz_solid_31) of phi = -1.70856e-05

volFieldValue volFieldValue_32 write:
    volIntegrate(cz_solid_32) of U = (1.65441e-09 -8.89205e-09 4.19346e-09)

surfaceFieldValue massFlowAtFilter_32 write:
    sum(fz_solid_32) of phi = -3.28311e-05

volFieldValue volFieldValue_33 write:
    volIntegrate(cz_solid_33) of U = (3.03011e-09 -9.73472e-09 3.81386e-09)

surfaceFieldValue massFlowAtFilter_33 write:
    sum(fz_solid_33) of phi = 1.05579e-06

volFieldValue volFieldValue_34 write:
    volIntegrate(cz_solid_34) of U = (4.23354e-09 -1.0525e-08 3.02831e-09)

surfaceFieldValue massFlowAtFilter_34 write:
    sum(fz_solid_34) of phi = -4.02367e-05

volFieldValue volFieldValue_35 write:
    volIntegrate(cz_solid_35) of U = (4.99037e-09 -1.09257e-08 1.76941e-09)

surfaceFieldValue massFlowAtFilter_35 write:
    sum(fz_solid_35) of phi = 2.34933e-05

volFieldValue volFieldValue_36 write:
    volIntegrate(cz_solid_36) of U = (4.97995e-09 -1.03397e-08 3.32134e-10)

surfaceFieldValue massFlowAtFilter_36 write:
    sum(fz_solid_36) of phi = -1.4402e-05

volFieldValue volFieldValue_37 write:
    volIntegrate(cz_solid_37) of U = (4.33389e-09 -9.01445e-09 -1.01178e-09)

surfaceFieldValue massFlowAtFilter_37 write:
    sum(fz_solid_37) of phi = 7.26721e-05

volFieldValue volFieldValue_38 write:
    volIntegrate(cz_solid_38) of U = (3.37221e-09 -8.01852e-09 -1.90467e-09)

surfaceFieldValue massFlowAtFilter_38 write:
    sum(fz_solid_38) of phi = 5.01065e-05

volFieldValue volFieldValue_39 write:
    volIntegrate(cz_solid_39) of U = (2.19615e-09 -7.19182e-09 -2.41204e-09)

surfaceFieldValue massFlowAtFilter_39 write:
    sum(fz_solid_39) of phi = 2.67172e-05

volFieldValue volFieldValue_40 write:
    volIntegrate(cz_solid_40) of U = (6.65641e-10 -5.73127e-09 -1.06836e-09)

surfaceFieldValue massFlowAtFilter_40 write:
    sum(fz_solid_40) of phi = 1.46283e-05

volFieldValue volFieldValue_41 write:
    volIntegrate(cz_solid_41) of U = (2.13709e-10 -5.15966e-09 -9.86168e-10)

surfaceFieldValue massFlowAtFilter_41 write:
    sum(fz_solid_41) of phi = 2.77647e-05

volFieldValue volFieldValue_42 write:
    volIntegrate(cz_solid_42) of U = (-1.30201e-10 -5.17583e-09 -8.38475e-10)

surfaceFieldValue massFlowAtFilter_42 write:
    sum(fz_solid_42) of phi = 3.30502e-06

volFieldValue volFieldValue_43 write:
    volIntegrate(cz_solid_43) of U = (-4.12173e-10 -4.88971e-09 -5.95808e-10)

surfaceFieldValue massFlowAtFilter_43 write:
    sum(fz_solid_43) of phi = 9.68551e-06

volFieldValue volFieldValue_44 write:
    volIntegrate(cz_solid_44) of U = (-6.60409e-10 -4.85133e-09 -3.41139e-10)

surfaceFieldValue massFlowAtFilter_44 write:
    sum(fz_solid_44) of phi = -1.15111e-06

volFieldValue volFieldValue_45 write:
    volIntegrate(cz_solid_45) of U = (-8.95077e-10 -4.68978e-09 -7.29981e-11)

surfaceFieldValue massFlowAtFilter_45 write:
    sum(fz_solid_45) of phi = 1.79701e-06

volFieldValue volFieldValue_46 write:
    volIntegrate(cz_solid_46) of U = (-1.11069e-09 -4.57861e-09 2.79228e-10)

surfaceFieldValue massFlowAtFilter_46 write:
    sum(fz_solid_46) of phi = 1.25974e-07

volFieldValue volFieldValue_47 write:
    volIntegrate(cz_solid_47) of U = (-1.20686e-09 -4.66177e-09 7.84162e-10)

surfaceFieldValue massFlowAtFilter_47 write:
    sum(fz_solid_47) of phi = -4.98373e-08

volFieldValue volFieldValue_48 write:
    volIntegrate(cz_solid_48) of U = (-1.14048e-09 -4.93089e-09 1.31318e-09)

surfaceFieldValue massFlowAtFilter_48 write:
    sum(fz_solid_48) of phi = -1.22538e-05

volFieldValue volFieldValue_49 write:
    volIntegrate(cz_solid_49) of U = (-8.21077e-10 -5.19933e-09 1.88195e-09)

surfaceFieldValue massFlowAtFilter_49 write:
    sum(fz_solid_49) of phi = 3.03716e-05

volFieldValue volFieldValue_50 write:
    volIntegrate(cz_solid_50) of U = (-1.58248e-10 -5.66907e-09 2.38717e-09)

surfaceFieldValue massFlowAtFilter_50 write:
    sum(fz_solid_50) of phi = 2.36488e-05

volFieldValue volFieldValue_51 write:
    volIntegrate(cz_solid_51) of U = (5.73105e-10 -6.38146e-09 2.64877e-09)

surfaceFieldValue massFlowAtFilter_51 write:
    sum(fz_solid_51) of phi = 1.19091e-05

volFieldValue volFieldValue_52 write:
    volIntegrate(cz_solid_52) of U = (1.53021e-09 -7.52383e-09 2.7258e-09)

surfaceFieldValue massFlowAtFilter_52 write:
    sum(fz_solid_52) of phi = 6.26385e-06

volFieldValue volFieldValue_53 write:
    volIntegrate(cz_solid_53) of U = (2.51815e-09 -8.95226e-09 2.5493e-09)

surfaceFieldValue massFlowAtFilter_53 write:
    sum(fz_solid_53) of phi = 4.20617e-05

volFieldValue volFieldValue_54 write:
    volIntegrate(cz_solid_54) of U = (3.48619e-09 -1.07336e-08 2.23844e-09)

surfaceFieldValue massFlowAtFilter_54 write:
    sum(fz_solid_54) of phi = -8.31402e-06

volFieldValue volFieldValue_55 write:
    volIntegrate(cz_solid_55) of U = (4.15183e-09 -1.25144e-08 1.68055e-09)

surfaceFieldValue massFlowAtFilter_55 write:
    sum(fz_solid_55) of phi = 2.57566e-05

volFieldValue volFieldValue_56 write:
    volIntegrate(cz_solid_56) of U = (3.9034e-09 -1.24884e-08 1.07326e-09)

surfaceFieldValue massFlowAtFilter_56 write:
    sum(fz_solid_56) of phi = 2.86531e-05

volFieldValue volFieldValue_57 write:
    volIntegrate(cz_solid_57) of U = (2.94946e-09 -9.97812e-09 3.10136e-10)

surfaceFieldValue massFlowAtFilter_57 write:
    sum(fz_solid_57) of phi = 4.00691e-05

volFieldValue volFieldValue_58 write:
    volIntegrate(cz_solid_58) of U = (2.01077e-09 -7.89733e-09 -5.50371e-10)

surfaceFieldValue massFlowAtFilter_58 write:
    sum(fz_solid_58) of phi = 4.2031e-05

volFieldValue volFieldValue_59 write:
    volIntegrate(cz_solid_59) of U = (1.26824e-09 -6.79833e-09 -9.80417e-10)

surfaceFieldValue massFlowAtFilter_59 write:
    sum(fz_solid_59) of phi = 4.36629e-05

volFieldValue volFieldValue_60 write:
    volIntegrate(cz_solid_60) of U = (1.89508e-11 -4.17362e-09 2.1943e-10)

surfaceFieldValue massFlowAtFilter_60 write:
    sum(fz_solid_60) of phi = -1.21815e-05

volFieldValue volFieldValue_61 write:
    volIntegrate(cz_solid_61) of U = (5.0592e-11 -3.64351e-09 2.8402e-11)

surfaceFieldValue massFlowAtFilter_61 write:
    sum(fz_solid_61) of phi = -5.54462e-06

volFieldValue volFieldValue_62 write:
    volIntegrate(cz_solid_62) of U = (-1.23644e-11 -3.57785e-09 -1.93482e-11)

surfaceFieldValue massFlowAtFilter_62 write:
    sum(fz_solid_62) of phi = -1.04602e-05

volFieldValue volFieldValue_63 write:
    volIntegrate(cz_solid_63) of U = (-1.12975e-10 -3.25741e-09 1.29053e-11)

surfaceFieldValue massFlowAtFilter_63 write:
    sum(fz_solid_63) of phi = -1.11725e-05

volFieldValue volFieldValue_64 write:
    volIntegrate(cz_solid_64) of U = (-2.52e-10 -3.16067e-09 6.99906e-11)

surfaceFieldValue massFlowAtFilter_64 write:
    sum(fz_solid_64) of phi = -1.42123e-05

volFieldValue volFieldValue_65 write:
    volIntegrate(cz_solid_65) of U = (-4.08965e-10 -3.00391e-09 1.53432e-10)

surfaceFieldValue massFlowAtFilter_65 write:
    sum(fz_solid_65) of phi = -1.84765e-05

volFieldValue volFieldValue_66 write:
    volIntegrate(cz_solid_66) of U = (-5.69163e-10 -2.92033e-09 3.45251e-10)

surfaceFieldValue massFlowAtFilter_66 write:
    sum(fz_solid_66) of phi = -2.33044e-05

volFieldValue volFieldValue_67 write:
    volIntegrate(cz_solid_67) of U = (-6.39151e-10 -2.98169e-09 6.78486e-10)

surfaceFieldValue massFlowAtFilter_67 write:
    sum(fz_solid_67) of phi = -2.06012e-05

volFieldValue volFieldValue_68 write:
    volIntegrate(cz_solid_68) of U = (-5.88752e-10 -3.14984e-09 1.04783e-09)

surfaceFieldValue massFlowAtFilter_68 write:
    sum(fz_solid_68) of phi = -3.73655e-05

volFieldValue volFieldValue_69 write:
    volIntegrate(cz_solid_69) of U = (-3.31406e-10 -3.36582e-09 1.48842e-09)

surfaceFieldValue massFlowAtFilter_69 write:
    sum(fz_solid_69) of phi = -3.61699e-06

volFieldValue volFieldValue_70 write:
    volIntegrate(cz_solid_70) of U = (2.327e-10 -3.76323e-09 1.91594e-09)

surfaceFieldValue massFlowAtFilter_70 write:
    sum(fz_solid_70) of phi = 4.11463e-06

volFieldValue volFieldValue_71 write:
    volIntegrate(cz_solid_71) of U = (8.88456e-10 -4.49278e-09 2.16367e-09)

surfaceFieldValue massFlowAtFilter_71 write:
    sum(fz_solid_71) of phi = -1.59486e-06

volFieldValue volFieldValue_72 write:
    volIntegrate(cz_solid_72) of U = (1.88413e-09 -5.75575e-09 2.27963e-09)

surfaceFieldValue massFlowAtFilter_72 write:
    sum(fz_solid_72) of phi = -2.02636e-05

volFieldValue volFieldValue_73 write:
    volIntegrate(cz_solid_73) of U = (3.12486e-09 -7.66739e-09 2.23942e-09)

surfaceFieldValue massFlowAtFilter_73 write:
    sum(fz_solid_73) of phi = 6.87086e-06

volFieldValue volFieldValue_74 write:
    volIntegrate(cz_solid_74) of U = (4.84024e-09 -1.08453e-08 2.0693e-09)

surfaceFieldValue massFlowAtFilter_74 write:
    sum(fz_solid_74) of phi = -5.80133e-05

volFieldValue volFieldValue_75 write:
    volIntegrate(cz_solid_75) of U = (6.872e-09 -1.64495e-08 1.42117e-09)

surfaceFieldValue massFlowAtFilter_75 write:
    sum(fz_solid_75) of phi = -6.01854e-05

volFieldValue volFieldValue_76 write:
    volIntegrate(cz_solid_76) of U = (7.65599e-09 -2.50783e-08 1.0237e-09)

surfaceFieldValue massFlowAtFilter_76 write:
    sum(fz_solid_76) of phi = -8.44373e-05

volFieldValue volFieldValue_77 write:
    volIntegrate(cz_solid_77) of U = (3.06483e-09 -2.14739e-08 5.84928e-09)

surfaceFieldValue massFlowAtFilter_77 write:
    sum(fz_solid_77) of phi = -4.47834e-05

volFieldValue volFieldValue_78 write:
    volIntegrate(cz_solid_78) of U = (-1.68267e-09 -7.24865e-09 1.0723e-09)

surfaceFieldValue massFlowAtFilter_78 write:
    sum(fz_solid_78) of phi = -3.54933e-05

volFieldValue volFieldValue_79 write:
    volIntegrate(cz_solid_79) of U = (-3.77995e-10 -4.76897e-09 4.97465e-10)

surfaceFieldValue massFlowAtFilter_79 write:
    sum(fz_solid_79) of phi = -1.11148e-05

volFieldValue volFieldValue_80 write:
    volIntegrate(cz_solid_80) of U = (-4.75796e-10 -2.31391e-09 1.01016e-09)

surfaceFieldValue massFlowAtFilter_80 write:
    sum(fz_solid_80) of phi = -5.41444e-06

volFieldValue volFieldValue_81 write:
    volIntegrate(cz_solid_81) of U = (-1.17988e-10 -1.85955e-09 6.44283e-10)

surfaceFieldValue massFlowAtFilter_81 write:
    sum(fz_solid_81) of phi = -1.73809e-06

volFieldValue volFieldValue_82 write:
    volIntegrate(cz_solid_82) of U = (-8.14261e-12 -1.62702e-09 4.2888e-10)

surfaceFieldValue massFlowAtFilter_82 write:
    sum(fz_solid_82) of phi = 3.90852e-06

volFieldValue volFieldValue_83 write:
    volIntegrate(cz_solid_83) of U = (-1.48267e-11 -1.36671e-09 3.21243e-10)

surfaceFieldValue massFlowAtFilter_83 write:
    sum(fz_solid_83) of phi = -7.38624e-06

volFieldValue volFieldValue_84 write:
    volIntegrate(cz_solid_84) of U = (-1.09597e-10 -1.25282e-09 2.64966e-10)

surfaceFieldValue massFlowAtFilter_84 write:
    sum(fz_solid_84) of phi = 1.09065e-05

volFieldValue volFieldValue_85 write:
    volIntegrate(cz_solid_85) of U = (-2.20605e-10 -1.13378e-09 2.79487e-10)

surfaceFieldValue massFlowAtFilter_85 write:
    sum(fz_solid_85) of phi = -1.71083e-05

volFieldValue volFieldValue_86 write:
    volIntegrate(cz_solid_86) of U = (-3.36196e-10 -1.05952e-09 4.09117e-10)

surfaceFieldValue massFlowAtFilter_86 write:
    sum(fz_solid_86) of phi = -9.11505e-06

volFieldValue volFieldValue_87 write:
    volIntegrate(cz_solid_87) of U = (-3.68106e-10 -1.09433e-09 6.68111e-10)

surfaceFieldValue massFlowAtFilter_87 write:
    sum(fz_solid_87) of phi = -1.14292e-05

volFieldValue volFieldValue_88 write:
    volIntegrate(cz_solid_88) of U = (-3.06002e-10 -1.2161e-09 9.57143e-10)

surfaceFieldValue massFlowAtFilter_88 write:
    sum(fz_solid_88) of phi = -2.25479e-05

volFieldValue volFieldValue_89 write:
    volIntegrate(cz_solid_89) of U = (-5.63263e-11 -1.31239e-09 1.33624e-09)

surfaceFieldValue massFlowAtFilter_89 write:
    sum(fz_solid_89) of phi = -2.08745e-05

volFieldValue volFieldValue_90 write:
    volIntegrate(cz_solid_90) of U = (4.81295e-10 -1.52171e-09 1.73523e-09)

surfaceFieldValue massFlowAtFilter_90 write:
    sum(fz_solid_90) of phi = 1.88354e-05

volFieldValue volFieldValue_91 write:
    volIntegrate(cz_solid_91) of U = (1.16643e-09 -1.84929e-09 1.96529e-09)

surfaceFieldValue massFlowAtFilter_91 write:
    sum(fz_solid_91) of phi = 5.45318e-06

volFieldValue volFieldValue_92 write:
    volIntegrate(cz_solid_92) of U = (2.30361e-09 -2.41314e-09 2.01603e-09)

surfaceFieldValue massFlowAtFilter_92 write:
    sum(fz_solid_92) of phi = 4.08802e-05

volFieldValue volFieldValue_93 write:
    volIntegrate(cz_solid_93) of U = (3.8735e-09 -3.54948e-09 1.87555e-09)

surfaceFieldValue massFlowAtFilter_93 write:
    sum(fz_solid_93) of phi = 5.22898e-05

volFieldValue volFieldValue_94 write:
    volIntegrate(cz_solid_94) of U = (6.41465e-09 -5.25073e-09 1.55416e-09)

surfaceFieldValue massFlowAtFilter_94 write:
    sum(fz_solid_94) of phi = 0.000119224

volFieldValue volFieldValue_95 write:
[...]

surfaceFieldValue massFlowAtFilter_7 write:
    sum(fz_solid_7) of phi = 7.35705e-05

volFieldValue volFieldValue_8 write:
    volIntegrate(cz_solid_8) of U = (-7.07605e-10 -1.78651e-07 1.01157e-09)

surfaceFieldValue massFlowAtFilter_8 write:
    sum(fz_solid_8) of phi = -0.000235554

volFieldValue volFieldValue_9 write:
    volIntegrate(cz_solid_9) of U = (-5.90034e-10 -1.47266e-07 1.1008e-09)

surfaceFieldValue massFlowAtFilter_9 write:
    sum(fz_solid_9) of phi = -1.05795e-05

volFieldValue volFieldValue_10 write:
    volIntegrate(cz_solid_10) of U = (-3.1053e-10 -1.02935e-07 1.13338e-09)

surfaceFieldValue massFlowAtFilter_10 write:
    sum(fz_solid_10) of phi = 5.09898e-05

volFieldValue volFieldValue_11 write:
    volIntegrate(cz_solid_11) of U = (6.82562e-11 -5.73201e-08 1.03276e-09)

surfaceFieldValue massFlowAtFilter_11 write:
    sum(fz_solid_11) of phi = 0.00010853

volFieldValue volFieldValue_12 write:
    volIntegrate(cz_solid_12) of U = (4.1308e-10 -3.30504e-08 8.69553e-10)

surfaceFieldValue massFlowAtFilter_12 write:
    sum(fz_solid_12) of phi = -0.000178114

volFieldValue volFieldValue_13 write:
    volIntegrate(cz_solid_13) of U = (6.72234e-10 -2.72362e-08 5.4496e-10)

surfaceFieldValue massFlowAtFilter_13 write:
    sum(fz_solid_13) of phi = 0.000177987

volFieldValue volFieldValue_14 write:
    volIntegrate(cz_solid_14) of U = (6.89111e-10 -2.2802e-08 5.1107e-11)

surfaceFieldValue massFlowAtFilter_14 write:
    sum(fz_solid_14) of phi = 1.29538e-05

volFieldValue volFieldValue_15 write:
    volIntegrate(cz_solid_15) of U = (3.23746e-10 1.17328e-09 -2.71154e-10)

surfaceFieldValue massFlowAtFilter_15 write:
    sum(fz_solid_15) of phi = -9.70044e-05

volFieldValue volFieldValue_16 write:
    volIntegrate(cz_solid_16) of U = (1.52035e-10 2.87328e-08 -2.09762e-10)

surfaceFieldValue massFlowAtFilter_16 write:
    sum(fz_solid_16) of phi = -0.000112982

volFieldValue volFieldValue_17 write:
    volIntegrate(cz_solid_17) of U = (1.58447e-10 2.78112e-08 -2.10349e-10)

surfaceFieldValue massFlowAtFilter_17 write:
    sum(fz_solid_17) of phi = -7.28516e-05

volFieldValue volFieldValue_18 write:
    volIntegrate(cz_solid_18) of U = (-7.30944e-11 7.23172e-09 -2.98776e-10)

surfaceFieldValue massFlowAtFilter_18 write:
    sum(fz_solid_18) of phi = -0.000296493

volFieldValue volFieldValue_19 write:
    volIntegrate(cz_solid_19) of U = (-3.8515e-10 -5.71034e-09 -2.13731e-10)

surfaceFieldValue massFlowAtFilter_19 write:
    sum(fz_solid_19) of phi = -0.000136032

volFieldValue volFieldValue_20 write:
    volIntegrate(cz_solid_20) of U = (-1.88096e-10 -2.49538e-08 4.51917e-10)

surfaceFieldValue massFlowAtFilter_20 write:
    sum(fz_solid_20) of phi = -6.22961e-05

volFieldValue volFieldValue_21 write:
    volIntegrate(cz_solid_21) of U = (-3.26163e-10 -4.09928e-08 3.447e-10)

surfaceFieldValue massFlowAtFilter_21 write:
    sum(fz_solid_21) of phi = 0.000141124

volFieldValue volFieldValue_22 write:
    volIntegrate(cz_solid_22) of U = (-4.28881e-10 -6.36957e-08 7.75524e-10)

surfaceFieldValue massFlowAtFilter_22 write:
    sum(fz_solid_22) of phi = -6.96351e-05

volFieldValue volFieldValue_23 write:
    volIntegrate(cz_solid_23) of U = (-6.72901e-10 -1.03026e-07 1.34437e-09)

surfaceFieldValue massFlowAtFilter_23 write:
    sum(fz_solid_23) of phi = -6.76144e-05

volFieldValue volFieldValue_24 write:
    volIntegrate(cz_solid_24) of U = (-3.96873e-10 -1.48806e-07 2.45646e-09)

surfaceFieldValue massFlowAtFilter_24 write:
    sum(fz_solid_24) of phi = -0.00036187

volFieldValue volFieldValue_25 write:
    volIntegrate(cz_solid_25) of U = (4.00631e-10 -1.95211e-07 2.58748e-09)

surfaceFieldValue massFlowAtFilter_25 write:
    sum(fz_solid_25) of phi = -0.000497144

volFieldValue volFieldValue_26 write:
    volIntegrate(cz_solid_26) of U = (7.45248e-10 -2.25375e-07 2.02265e-09)

surfaceFieldValue massFlowAtFilter_26 write:
    sum(fz_solid_26) of phi = 0.00032642

volFieldValue volFieldValue_27 write:
    volIntegrate(cz_solid_27) of U = (-7.62819e-12 -2.73199e-07 1.61924e-09)

surfaceFieldValue massFlowAtFilter_27 write:
    sum(fz_solid_27) of phi = 0.000521771

volFieldValue volFieldValue_28 write:
    volIntegrate(cz_solid_28) of U = (2.65581e-10 -2.81831e-07 1.41302e-09)

surfaceFieldValue massFlowAtFilter_28 write:
    sum(fz_solid_28) of phi = -8.02667e-05

volFieldValue volFieldValue_29 write:
    volIntegrate(cz_solid_29) of U = (-8.46919e-11 -2.39987e-07 9.98055e-10)

surfaceFieldValue massFlowAtFilter_29 write:
    sum(fz_solid_29) of phi = 7.41191e-05

volFieldValue volFieldValue_30 write:
    volIntegrate(cz_solid_30) of U = (-1.8039e-10 -1.61854e-07 9.36887e-10)

surfaceFieldValue massFlowAtFilter_30 write:
    sum(fz_solid_30) of phi = -1.72161e-05

volFieldValue volFieldValue_31 write:
    volIntegrate(cz_solid_31) of U = (3.27077e-11 -1.07424e-07 9.15392e-10)

surfaceFieldValue massFlowAtFilter_31 write:
    sum(fz_solid_31) of phi = -1.71386e-05

volFieldValue volFieldValue_32 write:
    volIntegrate(cz_solid_32) of U = (3.33041e-10 -8.22221e-08 8.09141e-10)

surfaceFieldValue massFlowAtFilter_32 write:
    sum(fz_solid_32) of phi = -3.03395e-05

volFieldValue volFieldValue_33 write:
    volIntegrate(cz_solid_33) of U = (5.47931e-10 -5.64639e-08 5.73621e-10)

surfaceFieldValue massFlowAtFilter_33 write:
    sum(fz_solid_33) of phi = -1.70783e-05

volFieldValue volFieldValue_34 write:
    volIntegrate(cz_solid_34) of U = (5.93969e-10 -2.73845e-08 2.80495e-10)

surfaceFieldValue massFlowAtFilter_34 write:
    sum(fz_solid_34) of phi = -3.03232e-05

volFieldValue volFieldValue_35 write:
    volIntegrate(cz_solid_35) of U = (4.69666e-10 -5.34028e-09 3.84949e-11)

surfaceFieldValue massFlowAtFilter_35 write:
    sum(fz_solid_35) of phi = 3.04127e-06

volFieldValue volFieldValue_36 write:
    volIntegrate(cz_solid_36) of U = (3.10984e-10 5.18099e-09 -1.24646e-10)

surfaceFieldValue massFlowAtFilter_36 write:
    sum(fz_solid_36) of phi = -1.71462e-05

volFieldValue volFieldValue_37 write:
    volIntegrate(cz_solid_37) of U = (1.5133e-10 3.60786e-10 -1.65077e-10)

surfaceFieldValue massFlowAtFilter_37 write:
    sum(fz_solid_37) of phi = -2.27871e-06

volFieldValue volFieldValue_38 write:
    volIntegrate(cz_solid_38) of U = (-2.96584e-11 -1.02227e-08 -6.21434e-11)

surfaceFieldValue massFlowAtFilter_38 write:
    sum(fz_solid_38) of phi = -9.49895e-05

volFieldValue volFieldValue_39 write:
    volIntegrate(cz_solid_39) of U = (-1.6639e-10 -1.98847e-08 1.86883e-10)

surfaceFieldValue massFlowAtFilter_39 write:
    sum(fz_solid_39) of phi = -6.01437e-05

volFieldValue volFieldValue_40 write:
    volIntegrate(cz_solid_40) of U = (-1.97813e-10 -1.19824e-08 5.32104e-10)

surfaceFieldValue massFlowAtFilter_40 write:
    sum(fz_solid_40) of phi = -4.82499e-05

volFieldValue volFieldValue_41 write:
    volIntegrate(cz_solid_41) of U = (-3.4284e-10 -2.98081e-08 4.21347e-10)

surfaceFieldValue massFlowAtFilter_41 write:
    sum(fz_solid_41) of phi = 0.000165087

volFieldValue volFieldValue_42 write:
    volIntegrate(cz_solid_42) of U = (-4.12121e-10 -5.12053e-08 1.09773e-09)

surfaceFieldValue massFlowAtFilter_42 write:
    sum(fz_solid_42) of phi = 6.50909e-05

volFieldValue volFieldValue_43 write:
    volIntegrate(cz_solid_43) of U = (-6.85971e-10 -9.18736e-08 2.00748e-09)

surfaceFieldValue massFlowAtFilter_43 write:
    sum(fz_solid_43) of phi = 0.000309139

volFieldValue volFieldValue_44 write:
    volIntegrate(cz_solid_44) of U = (-8.90514e-11 -1.46708e-07 3.77233e-09)

surfaceFieldValue massFlowAtFilter_44 write:
    sum(fz_solid_44) of phi = -0.000165794

volFieldValue volFieldValue_45 write:
    volIntegrate(cz_solid_45) of U = (1.34143e-09 -2.01531e-07 4.0456e-09)

surfaceFieldValue massFlowAtFilter_45 write:
    sum(fz_solid_45) of phi = -0.000237808

volFieldValue volFieldValue_46 write:
    volIntegrate(cz_solid_46) of U = (2.12114e-09 -2.41101e-07 3.18101e-09)

surfaceFieldValue massFlowAtFilter_46 write:
    sum(fz_solid_46) of phi = 0.000528116

volFieldValue volFieldValue_47 write:
    volIntegrate(cz_solid_47) of U = (8.2999e-10 -3.01949e-07 2.54164e-09)

surfaceFieldValue massFlowAtFilter_47 write:
    sum(fz_solid_47) of phi = 0.000610079

volFieldValue volFieldValue_48 write:
    volIntegrate(cz_solid_48) of U = (1.49836e-09 -3.2319e-07 1.90313e-09)

surfaceFieldValue massFlowAtFilter_48 write:
    sum(fz_solid_48) of phi = -7.07142e-08

volFieldValue volFieldValue_49 write:
    volIntegrate(cz_solid_49) of U = (7.17319e-10 -2.80642e-07 5.91028e-10)

surfaceFieldValue massFlowAtFilter_49 write:
    sum(fz_solid_49) of phi = -0.000144429

volFieldValue volFieldValue_50 write:
    volIntegrate(cz_solid_50) of U = (3.44483e-10 -1.73892e-07 -8.22759e-11)

surfaceFieldValue massFlowAtFilter_50 write:
    sum(fz_solid_50) of phi = -8.89632e-05

volFieldValue volFieldValue_51 write:
    volIntegrate(cz_solid_51) of U = (3.33294e-10 -8.54961e-08 1.76117e-11)

surfaceFieldValue massFlowAtFilter_51 write:
    sum(fz_solid_51) of phi = -1.26048e-05

volFieldValue volFieldValue_52 write:
    volIntegrate(cz_solid_52) of U = (2.81995e-10 -4.4167e-08 2.54547e-10)

surfaceFieldValue massFlowAtFilter_52 write:
    sum(fz_solid_52) of phi = -5.75031e-05

volFieldValue volFieldValue_53 write:
    volIntegrate(cz_solid_53) of U = (2.79647e-10 -6.52146e-09 2.60782e-10)

surfaceFieldValue massFlowAtFilter_53 write:
    sum(fz_solid_53) of phi = -5.8508e-05

volFieldValue volFieldValue_54 write:
    volIntegrate(cz_solid_54) of U = (1.97033e-10 3.58523e-08 1.16901e-10)

surfaceFieldValue massFlowAtFilter_54 write:
    sum(fz_solid_54) of phi = -4.14961e-05

volFieldValue volFieldValue_55 write:
    volIntegrate(cz_solid_55) of U = (8.00937e-12 6.99067e-08 -4.50449e-11)

surfaceFieldValue massFlowAtFilter_55 write:
    sum(fz_solid_55) of phi = -2.79788e-05

volFieldValue volFieldValue_56 write:
    volIntegrate(cz_solid_56) of U = (-1.78666e-10 7.74891e-08 -1.46502e-10)

surfaceFieldValue massFlowAtFilter_56 write:
    sum(fz_solid_56) of phi = -3.32906e-05

volFieldValue volFieldValue_57 write:
    volIntegrate(cz_solid_57) of U = (-3.36124e-10 5.38851e-08 -1.51287e-11)

surfaceFieldValue massFlowAtFilter_57 write:
    sum(fz_solid_57) of phi = -3.33043e-05

volFieldValue volFieldValue_58 write:
    volIntegrate(cz_solid_58) of U = (-3.19067e-10 2.37176e-08 1.83143e-10)

surfaceFieldValue massFlowAtFilter_58 write:
    sum(fz_solid_58) of phi = -0.000145739

volFieldValue volFieldValue_59 write:
    volIntegrate(cz_solid_59) of U = (-2.46492e-10 7.52411e-10 3.70978e-10)

surfaceFieldValue massFlowAtFilter_59 write:
    sum(fz_solid_59) of phi = 4.73886e-05

volFieldValue volFieldValue_60 write:
    volIntegrate(cz_solid_60) of U = (-3.90818e-10 1.72203e-08 6.77582e-10)

surfaceFieldValue massFlowAtFilter_60 write:
    sum(fz_solid_60) of phi = -0.000197792

volFieldValue volFieldValue_61 write:
    volIntegrate(cz_solid_61) of U = (-5.55815e-10 -3.21961e-09 5.73097e-10)

surfaceFieldValue massFlowAtFilter_61 write:
    sum(fz_solid_61) of phi = -1.56943e-05

volFieldValue volFieldValue_62 write:
    volIntegrate(cz_solid_62) of U = (-6.55278e-10 -2.25672e-08 1.59724e-09)

surfaceFieldValue massFlowAtFilter_62 write:
    sum(fz_solid_62) of phi = 5.20199e-05

volFieldValue volFieldValue_63 write:
    volIntegrate(cz_solid_63) of U = (-1.02609e-09 -6.15624e-08 2.84402e-09)

surfaceFieldValue massFlowAtFilter_63 write:
    sum(fz_solid_63) of phi = 0.000200611

volFieldValue volFieldValue_64 write:
    volIntegrate(cz_solid_64) of U = (-1.69034e-10 -1.01257e-07 5.46219e-09)

surfaceFieldValue massFlowAtFilter_64 write:
    sum(fz_solid_64) of phi = -0.000194764

volFieldValue volFieldValue_65 write:
    volIntegrate(cz_solid_65) of U = (2.09205e-09 -1.37721e-07 6.01839e-09)

surfaceFieldValue massFlowAtFilter_65 write:
    sum(fz_solid_65) of phi = -0.000680845

volFieldValue volFieldValue_66 write:
    volIntegrate(cz_solid_66) of U = (3.78674e-09 -1.62554e-07 4.83416e-09)

surfaceFieldValue massFlowAtFilter_66 write:
    sum(fz_solid_66) of phi = 0.000434026

volFieldValue volFieldValue_67 write:
    volIntegrate(cz_solid_67) of U = (2.31566e-09 -1.93822e-07 3.72778e-09)

surfaceFieldValue massFlowAtFilter_67 write:
    sum(fz_solid_67) of phi = 0.000346646

volFieldValue volFieldValue_68 write:
    volIntegrate(cz_solid_68) of U = (3.65474e-09 -2.07966e-07 2.6428e-09)

surfaceFieldValue massFlowAtFilter_68 write:
    sum(fz_solid_68) of phi = -0.000539631

volFieldValue volFieldValue_69 write:
    volIntegrate(cz_solid_69) of U = (2.23753e-09 -1.81296e-07 2.56413e-10)

surfaceFieldValue massFlowAtFilter_69 write:
    sum(fz_solid_69) of phi = -0.000450455

volFieldValue volFieldValue_70 write:
    volIntegrate(cz_solid_70) of U = (1.15136e-09 -1.33615e-07 -7.64204e-10)

surfaceFieldValue massFlowAtFilter_70 write:
    sum(fz_solid_70) of phi = -0.000251287

volFieldValue volFieldValue_71 write:
    volIntegrate(cz_solid_71) of U = (6.02309e-10 -9.8537e-08 -6.71021e-10)

surfaceFieldValue massFlowAtFilter_71 write:
    sum(fz_solid_71) of phi = -5.43404e-06

volFieldValue volFieldValue_72 write:
    volIntegrate(cz_solid_72) of U = (-3.70428e-11 -5.03589e-08 -4.77804e-10)

surfaceFieldValue massFlowAtFilter_72 write:
    sum(fz_solid_72) of phi = 6.13048e-05

volFieldValue volFieldValue_73 write:
    volIntegrate(cz_solid_73) of U = (-5.23141e-10 3.56096e-08 -4.64166e-10)

surfaceFieldValue massFlowAtFilter_73 write:
    sum(fz_solid_73) of phi = -4.37276e-05

volFieldValue volFieldValue_74 write:
    volIntegrate(cz_solid_74) of U = (-7.99932e-10 1.12431e-07 -4.41306e-10)

surfaceFieldValue massFlowAtFilter_74 write:
    sum(fz_solid_74) of phi = 0.000267784

volFieldValue volFieldValue_75 write:
    volIntegrate(cz_solid_75) of U = (-8.03302e-10 1.46133e-07 -5.37385e-10)

surfaceFieldValue massFlowAtFilter_75 write:
    sum(fz_solid_75) of phi = 5.31075e-05

volFieldValue volFieldValue_76 write:
    volIntegrate(cz_solid_76) of U = (-6.34121e-10 8.86166e-08 -4.24335e-10)

surfaceFieldValue massFlowAtFilter_76 write:
    sum(fz_solid_76) of phi = -5.55094e-05

volFieldValue volFieldValue_77 write:
    volIntegrate(cz_solid_77) of U = (-4.70969e-10 5.9445e-08 -1.05319e-10)

surfaceFieldValue massFlowAtFilter_77 write:
    sum(fz_solid_77) of phi = 2.49638e-05

volFieldValue volFieldValue_78 write:
    volIntegrate(cz_solid_78) of U = (-4.53913e-10 6.15839e-08 5.1309e-11)

surfaceFieldValue massFlowAtFilter_78 write:
    sum(fz_solid_78) of phi = -0.000183068

volFieldValue volFieldValue_79 write:
    volIntegrate(cz_solid_79) of U = (-5.26498e-10 3.53962e-08 4.42555e-10)

surfaceFieldValue massFlowAtFilter_79 write:
    sum(fz_solid_79) of phi = -1.82694e-05

volFieldValue volFieldValue_80 write:
    volIntegrate(cz_solid_80) of U = (-4.51294e-10 -1.17246e-08 4.10167e-10)

surfaceFieldValue massFlowAtFilter_80 write:
    sum(fz_solid_80) of phi = -8.74045e-05

volFieldValue volFieldValue_81 write:
    volIntegrate(cz_solid_81) of U = (-7.39894e-10 -3.09965e-08 4.33495e-10)

surfaceFieldValue massFlowAtFilter_81 write:
    sum(fz_solid_81) of phi = -9.21986e-05

volFieldValue volFieldValue_82 write:
    volIntegrate(cz_solid_82) of U = (-1.09976e-09 -4.1307e-08 1.64509e-09)

surfaceFieldValue massFlowAtFilter_82 write:
    sum(fz_solid_82) of phi = 8.48708e-05

volFieldValue volFieldValue_83 write:
    volIntegrate(cz_solid_83) of U = (-1.59486e-09 -4.80981e-08 3.20464e-09)

surfaceFieldValue massFlowAtFilter_83 write:
    sum(fz_solid_83) of phi = -4.32672e-05

volFieldValue volFieldValue_84 write:
    volIntegrate(cz_solid_84) of U = (-6.8888e-10 -5.2804e-08 6.57239e-09)

surfaceFieldValue massFlowAtFilter_84 write:
    sum(fz_solid_84) of phi = 0.00039637

volFieldValue volFieldValue_85 write:
    volIntegrate(cz_solid_85) of U = (2.32376e-09 -4.87714e-08 7.42691e-09)

surfaceFieldValue massFlowAtFilter_85 write:
    sum(fz_solid_85) of phi = -0.00083572

volFieldValue volFieldValue_86 write:
    volIntegrate(cz_solid_86) of U = (4.6517e-09 -4.93939e-08 5.97356e-09)

surfaceFieldValue massFlowAtFilter_86 write:
    sum(fz_solid_86) of phi = -0.000176329

volFieldValue volFieldValue_87 write:
    volIntegrate(cz_solid_87) of U = (3.7139e-09 -4.44223e-09 4.60147e-09)

surfaceFieldValue massFlowAtFilter_87 write:
    sum(fz_solid_87) of phi = 0.000589733

volFieldValue volFieldValue_88 write:
    volIntegrate(cz_solid_88) of U = (6.20203e-09 -1.63767e-09 3.59615e-09)

surfaceFieldValue massFlowAtFilter_88 write:
    sum(fz_solid_88) of phi = -0.00125707

volFieldValue volFieldValue_89 write:
    volIntegrate(cz_solid_89) of U = (4.76725e-09 -7.90394e-10 -2.8059e-10)

surfaceFieldValue massFlowAtFilter_89 write:
    sum(fz_solid_89) of phi = -0.000730611

volFieldValue volFieldValue_90 write:
    volIntegrate(cz_solid_90) of U = (2.2247e-09 -1.95014e-08 -1.73733e-09)

surfaceFieldValue massFlowAtFilter_90 write:
    sum(fz_solid_90) of phi = -0.000403904

volFieldValue volFieldValue_91 write:
    volIntegrate(cz_solid_91) of U = (1.12413e-09 -5.85431e-08 -9.18194e-10)

surfaceFieldValue massFlowAtFilter_91 write:
    sum(fz_solid_91) of phi = 0.000151711

volFieldValue volFieldValue_92 write:
    volIntegrate(cz_solid_92) of U = (5.90289e-10 -6.5556e-08 -1.06192e-09)

surfaceFieldValue massFlowAtFilter_92 write:
    sum(fz_solid_92) of phi = 0.000134732

volFieldValue volFieldValue_93 write:
    volIntegrate(cz_solid_93) of U = (-5.89581e-10 -4.99067e-08 -1.71964e-09)

surfaceFieldValue massFlowAtFilter_93 write:
    sum(fz_solid_93) of phi = 8.7063e-05

volFieldValue volFieldValue_94 write:
    volIntegrate(cz_solid_94) of U = (-2.07683e-09 -1.79476e-09 -1.03573e-09)

surfaceFieldValue massFlowAtFilter_94 write:
    sum(fz_solid_94) of phi = 0.000607826

volFieldValue volFieldValue_95 write:
    volIntegrate(cz_solid_95) of U = (-1.29393e-09 3.63599e-08 -8.35311e-10)

surfaceFieldValue massFlowAtFilter_95 write:
    sum(fz_solid_95) of phi = -0.000130193

volFieldValue volFieldValue_96 write:
    volIntegrate(cz_solid_96) of U = (-7.20336e-10 5.08204e-08 -5.99854e-10)

surfaceFieldValue massFlowAtFilter_96 write:
    sum(fz_solid_96) of phi = -1.61998e-05

volFieldValue volFieldValue_97 write:
    volIntegrate(cz_solid_97) of U = (-4.08215e-10 5.41877e-08 -7.31969e-11)

surfaceFieldValue massFlowAtFilter_97 write:
    sum(fz_solid_97) of phi = 0.000212067

volFieldValue volFieldValue_98 write:
    volIntegrate(cz_solid_98) of U = (-3.99219e-10 3.72705e-08 1.1078e-10)

surfaceFieldValue massFlowAtFilter_98 write:
    sum(fz_solid_98) of phi = -0.000169529

volFieldValue volFieldValue_99 write:
    volIntegrate(cz_solid_99) of U = (-4.35954e-10 1.75136e-08 2.79822e-10)

surfaceFieldValue massFlowAtFilter_99 write:
    sum(fz_solid_99) of phi = 0.000219305

Time = 1121

DILUPBiCG:  Solving for Ux, Initial residual = 1.11628e-07, Final residual = 1.11628e-07, No Iterations 0
DILUPBiCG:  Solving for Uy, Initial residual = 1.10046e-07, Final residual = 1.10046e-07, No Iterations 0
DILUPBiCG:  Solving for Uz, Initial residual = 2.16962e-07, Final residual = 2.16962e-07, No Iterations 0
DICPCG:  Solving for p, Initial residual = 0.000999222, Final residual = 9.79692e-05, No Iterations 11
DICPCG:  Solving for p, Initial residual = 0.000227682, Final residual = 2.17525e-05, No Iterations 25
DICPCG:  Solving for p, Initial residual = 5.34459e-05, Final residual = 9.87172e-06, No Iterations 6
time step continuity errors : sum local = 7.85577e-05, global = -1.65956e-05, cumulative = -0.00320937
DILUPBiCG:  Solving for epsilon, Initial residual = 0.000677832, Final residual = 2.89198e-07, No Iterations 3
bounding epsilon, min: -0.000319552 max: 7957.65 average: 25.7756
DILUPBiCG:  Solving for k, Initial residual = 0.000788818, Final residual = 3.53751e-07, No Iterations 3
ExecutionTime = 2640.4 s  ClockTime = 2730 s


SIMPLE solution converged in 1121 iterations

End

Finalising parallel run
