/*---------------------------------------------------------------------------*\
  =========                 |
  \\      /  F ield         | OpenFOAM: The Open Source CFD Toolbox
   \\    /   O peration     | Website:  https://openfoam.org
    \\  /    A nd           | Version:  6
     \\/     M anipulation  |
\*---------------------------------------------------------------------------*/
Build  : 6
Exec   : bouSimpleFoam -parallel
Date   : Aug 08 2020
Time   : 22:55:44
Host   : "emps-ugmat1"
PID    : 20207
I/O    : uncollated
Case   : /home/links/jjw230/Second_Extra/Case14
nProcs : 4
Slaves : 
3
(
"emps-ugmat1.20208"
"emps-ugmat1.20209"
"emps-ugmat1.20210"
)

Pstream initialized with:
    floatTransfer      : 0
    nProcsSimpleSum    : 0
    commsType          : nonBlocking
    polling iterations : 0
sigFpe : Enabling floating point exception trapping (FOAM_SIGFPE).
fileModificationChecking : Monitoring run-time modified files using timeStampMaster (fileModificationSkew 10)
allowSystemOperations : Allowing user-supplied system call operations

// * * * * * * * * * * * * * * * * * * * * * * * * * * * * * * * * * * * * * //
Create time

Create mesh for time = 0


SIMPLE: Convergence criteria found
        p: tolerance 0.001
        U: tolerance 0.001
        "(k|epsilon)": tolerance 0.001
        theta: tolerance 0.001

Reading field p

Reading field U

Reading field theta

Reading/calculating face flux field phi

Selecting incompressible transport model Newtonian
Selecting turbulence model type RAS
Selecting RAS turbulence model RNGkEpsilon
RAS
{
    RASModel        RNGkEpsilon;
    turbulence      on;
    printCoeffs     on;
    Cmu             0.0845;
    C1              1.42;
    C2              1.68;
    C3              0;
    sigmak          0.71942;
    sigmaEps        0.71942;
    eta0            4.38;
    beta            0.012;
}

No MRF models present

Creating finite volume options from "system/fvOptions"

Selecting finite volume options model type explicitPorositySource
    Source: source0
    - selecting cells using cellZone cz_solid_0
    - selected 2318 cell(s) with volume 0.00214548
Porosity region source0:
    selecting model: DarcyForchheimer
    creating porous zone: cz_solid_0
Selecting finite volume options model type explicitPorositySource
    Source: source1
    - selecting cells using cellZone cz_solid_1
    - selected 2452 cell(s) with volume 0.00214195
Porosity region source1:
    selecting model: DarcyForchheimer
    creating porous zone: cz_solid_1
Selecting finite volume options model type explicitPorositySource
    Source: source2
    - selecting cells using cellZone cz_solid_2
    - selected 2346 cell(s) with volume 0.00214583
Porosity region source2:
    selecting model: DarcyForchheimer
    creating porous zone: cz_solid_2
Selecting finite volume options model type explicitPorositySource
    Source: source3
    - selecting cells using cellZone cz_solid_3
    - selected 2089 cell(s) with volume 0.00214087
Porosity region source3:
    selecting model: DarcyForchheimer
    creating porous zone: cz_solid_3
Selecting finite volume options model type explicitPorositySource
    Source: source4
    - selecting cells using cellZone cz_solid_4
    - selected 2326 cell(s) with volume 0.00214498
Porosity region source4:
    selecting model: DarcyForchheimer
    creating porous zone: cz_solid_4
Selecting finite volume options model type explicitPorositySource
    Source: source5
    - selecting cells using cellZone cz_solid_5
    - selected 1880 cell(s) with volume 0.0021416
Porosity region source5:
    selecting model: DarcyForchheimer
    creating porous zone: cz_solid_5
Selecting finite volume options model type explicitPorositySource
    Source: source6
    - selecting cells using cellZone cz_solid_6
    - selected 2174 cell(s) with volume 0.00214465
Porosity region source6:
    selecting model: DarcyForchheimer
    creating porous zone: cz_solid_6
Selecting finite volume options model type explicitPorositySource
    Source: source7
    - selecting cells using cellZone cz_solid_7
    - selected 2094 cell(s) with volume 0.00214468
Porosity region source7:
    selecting model: DarcyForchheimer
    creating porous zone: cz_solid_7
Selecting finite volume options model type explicitPorositySource
    Source: source8
    - selecting cells using cellZone cz_solid_8
    - selected 1733 cell(s) with volume 0.00214312
Porosity region source8:
    selecting model: DarcyForchheimer
    creating porous zone: cz_solid_8
Selecting finite volume options model type explicitPorositySource
    Source: source9
    - selecting cells using cellZone cz_solid_9
    - selected 2083 cell(s) with volume 0.00214288
Porosity region source9:
    selecting model: DarcyForchheimer
    creating porous zone: cz_solid_9
Selecting finite volume options model type explicitPorositySource
    Source: source10
    - selecting cells using cellZone cz_solid_10
    - selected 2281 cell(s) with volume 0.00214537
Porosity region source10:
    selecting model: DarcyForchheimer
    creating porous zone: cz_solid_10
Selecting finite volume options model type explicitPorositySource
    Source: source11
    - selecting cells using cellZone cz_solid_11
    - selected 2356 cell(s) with volume 0.00214362
Porosity region source11:
    selecting model: DarcyForchheimer
    creating porous zone: cz_solid_11
Selecting finite volume options model type explicitPorositySource
    Source: source12
    - selecting cells using cellZone cz_solid_12
    - selected 2358 cell(s) with volume 0.00214459
Porosity region source12:
    selecting model: DarcyForchheimer
    creating porous zone: cz_solid_12
Selecting finite volume options model type explicitPorositySource
    Source: source13
    - selecting cells using cellZone cz_solid_13
    - selected 2004 cell(s) with volume 0.00214287
Porosity region source13:
    selecting model: DarcyForchheimer
    creating porous zone: cz_solid_13
Selecting finite volume options model type explicitPorositySource
    Source: source14
    - selecting cells using cellZone cz_solid_14
    - selected 1880 cell(s) with volume 0.00214431
Porosity region source14:
    selecting model: DarcyForchheimer
    creating porous zone: cz_solid_14
Selecting finite volume options model type explicitPorositySource
    Source: source15
    - selecting cells using cellZone cz_solid_15
    - selected 2114 cell(s) with volume 0.00214225
Porosity region source15:
    selecting model: DarcyForchheimer
    creating porous zone: cz_solid_15
Selecting finite volume options model type explicitPorositySource
    Source: source16
    - selecting cells using cellZone cz_solid_16
    - selected 2244 cell(s) with volume 0.0021417
Porosity region source16:
    selecting model: DarcyForchheimer
    creating porous zone: cz_solid_16
Selecting finite volume options model type explicitPorositySource
    Source: source17
    - selecting cells using cellZone cz_solid_17
    - selected 2319 cell(s) with volume 0.00214541
Porosity region source17:
    selecting model: DarcyForchheimer
    creating porous zone: cz_solid_17
Selecting finite volume options model type explicitPorositySource
    Source: source18
    - selecting cells using cellZone cz_solid_18
    - selected 2361 cell(s) with volume 0.00214506
Porosity region source18:
    selecting model: DarcyForchheimer
    creating porous zone: cz_solid_18
Selecting finite volume options model type explicitPorositySource
    Source: source19
    - selecting cells using cellZone cz_solid_19
    - selected 1815 cell(s) with volume 0.00213927
Porosity region source19:
    selecting model: DarcyForchheimer
    creating porous zone: cz_solid_19
Selecting finite volume options model type explicitPorositySource
    Source: source20
    - selecting cells using cellZone cz_solid_20
    - selected 2328 cell(s) with volume 0.00214494
Porosity region source20:
    selecting model: DarcyForchheimer
    creating porous zone: cz_solid_20
Selecting finite volume options model type explicitPorositySource
    Source: source21
    - selecting cells using cellZone cz_solid_21
    - selected 2444 cell(s) with volume 0.002142
Porosity region source21:
    selecting model: DarcyForchheimer
    creating porous zone: cz_solid_21
Selecting finite volume options model type explicitPorositySource
    Source: source22
    - selecting cells using cellZone cz_solid_22
    - selected 2328 cell(s) with volume 0.00214557
Porosity region source22:
    selecting model: DarcyForchheimer
    creating porous zone: cz_solid_22
Selecting finite volume options model type explicitPorositySource
    Source: source23
    - selecting cells using cellZone cz_solid_23
    - selected 2088 cell(s) with volume 0.00214069
Porosity region source23:
    selecting model: DarcyForchheimer
    creating porous zone: cz_solid_23
Selecting finite volume options model type explicitPorositySource
    Source: source24
    - selecting cells using cellZone cz_solid_24
    - selected 2332 cell(s) with volume 0.00214448
Porosity region source24:
    selecting model: DarcyForchheimer
    creating porous zone: cz_solid_24
Selecting finite volume options model type explicitPorositySource
    Source: source25
    - selecting cells using cellZone cz_solid_25
    - selected 1892 cell(s) with volume 0.00214118
Porosity region source25:
    selecting model: DarcyForchheimer
    creating porous zone: cz_solid_25
Selecting finite volume options model type explicitPorositySource
    Source: source26
    - selecting cells using cellZone cz_solid_26
    - selected 2164 cell(s) with volume 0.00214478
Porosity region source26:
    selecting model: DarcyForchheimer
    creating porous zone: cz_solid_26
Selecting finite volume options model type explicitPorositySource
    Source: source27
    - selecting cells using cellZone cz_solid_27
    - selected 2090 cell(s) with volume 0.00214471
Porosity region source27:
    selecting model: DarcyForchheimer
    creating porous zone: cz_solid_27
Selecting finite volume options model type explicitPorositySource
    Source: source28
    - selecting cells using cellZone cz_solid_28
    - selected 1738 cell(s) with volume 0.00214296
Porosity region source28:
    selecting model: DarcyForchheimer
    creating porous zone: cz_solid_28
Selecting finite volume options model type explicitPorositySource
    Source: source29
    - selecting cells using cellZone cz_solid_29
    - selected 2074 cell(s) with volume 0.00214268
Porosity region source29:
    selecting model: DarcyForchheimer
    creating porous zone: cz_solid_29
Selecting finite volume options model type explicitPorositySource
    Source: source30
    - selecting cells using cellZone cz_solid_30
    - selected 2292 cell(s) with volume 0.00214514
Porosity region source30:
    selecting model: DarcyForchheimer
    creating porous zone: cz_solid_30
Selecting finite volume options model type explicitPorositySource
    Source: source31
    - selecting cells using cellZone cz_solid_31
    - selected 2368 cell(s) with volume 0.00214359
Porosity region source31:
    selecting model: DarcyForchheimer
    creating porous zone: cz_solid_31
Selecting finite volume options model type explicitPorositySource
    Source: source32
    - selecting cells using cellZone cz_solid_32
    - selected 2348 cell(s) with volume 0.0021446
Porosity region source32:
    selecting model: DarcyForchheimer
    creating porous zone: cz_solid_32
Selecting finite volume options model type explicitPorositySource
    Source: source33
    - selecting cells using cellZone cz_solid_33
    - selected 1996 cell(s) with volume 0.00214283
Porosity region source33:
    selecting model: DarcyForchheimer
    creating porous zone: cz_solid_33
Selecting finite volume options model type explicitPorositySource
    Source: source34
    - selecting cells using cellZone cz_solid_34
    - selected 1892 cell(s) with volume 0.00214423
Porosity region source34:
    selecting model: DarcyForchheimer
    creating porous zone: cz_solid_34
Selecting finite volume options model type explicitPorositySource
    Source: source35
    - selecting cells using cellZone cz_solid_35
    - selected 2106 cell(s) with volume 0.0021417
Porosity region source35:
    selecting model: DarcyForchheimer
    creating porous zone: cz_solid_35
Selecting finite volume options model type explicitPorositySource
    Source: source36
    - selecting cells using cellZone cz_solid_36
    - selected 2256 cell(s) with volume 0.00214215
Porosity region source36:
    selecting model: DarcyForchheimer
    creating porous zone: cz_solid_36
Selecting finite volume options model type explicitPorositySource
    Source: source37
    - selecting cells using cellZone cz_solid_37
    - selected 2332 cell(s) with volume 0.00214484
Porosity region source37:
    selecting model: DarcyForchheimer
    creating porous zone: cz_solid_37
Selecting finite volume options model type explicitPorositySource
    Source: source38
    - selecting cells using cellZone cz_solid_38
    - selected 2346 cell(s) with volume 0.0021445
Porosity region source38:
    selecting model: DarcyForchheimer
    creating porous zone: cz_solid_38
Selecting finite volume options model type explicitPorositySource
    Source: source39
    - selecting cells using cellZone cz_solid_39
    - selected 1814 cell(s) with volume 0.00213933
Porosity region source39:
    selecting model: DarcyForchheimer
    creating porous zone: cz_solid_39
Selecting finite volume options model type explicitPorositySource
    Source: source40
    - selecting cells using cellZone cz_solid_40
    - selected 2388 cell(s) with volume 0.00214533
Porosity region source40:
    selecting model: DarcyForchheimer
    creating porous zone: cz_solid_40
Selecting finite volume options model type explicitPorositySource
    Source: source41
    - selecting cells using cellZone cz_solid_41
    - selected 2508 cell(s) with volume 0.00214187
Porosity region source41:
    selecting model: DarcyForchheimer
    creating porous zone: cz_solid_41
Selecting finite volume options model type explicitPorositySource
    Source: source42
    - selecting cells using cellZone cz_solid_42
    - selected 2409 cell(s) with volume 0.00214561
Porosity region source42:
    selecting model: DarcyForchheimer
    creating porous zone: cz_solid_42
Selecting finite volume options model type explicitPorositySource
    Source: source43
    - selecting cells using cellZone cz_solid_43
    - selected 2159 cell(s) with volume 0.00214085
Porosity region source43:
    selecting model: DarcyForchheimer
    creating porous zone: cz_solid_43
Selecting finite volume options model type explicitPorositySource
    Source: source44
    - selecting cells using cellZone cz_solid_44
    - selected 2396 cell(s) with volume 0.0021449
Porosity region source44:
    selecting model: DarcyForchheimer
    creating porous zone: cz_solid_44
Selecting finite volume options model type explicitPorositySource
    Source: source45
    - selecting cells using cellZone cz_solid_45
    - selected 1964 cell(s) with volume 0.00214147
Porosity region source45:
    selecting model: DarcyForchheimer
    creating porous zone: cz_solid_45
Selecting finite volume options model type explicitPorositySource
    Source: source46
    - selecting cells using cellZone cz_solid_46
    - selected 2244 cell(s) with volume 0.00214472
Porosity region source46:
    selecting model: DarcyForchheimer
    creating porous zone: cz_solid_46
Selecting finite volume options model type explicitPorositySource
    Source: source47
    - selecting cells using cellZone cz_solid_47
    - selected 2171 cell(s) with volume 0.0021446
Porosity region source47:
    selecting model: DarcyForchheimer
    creating porous zone: cz_solid_47
Selecting finite volume options model type explicitPorositySource
    Source: source48
    - selecting cells using cellZone cz_solid_48
    - selected 1810 cell(s) with volume 0.00214307
Porosity region source48:
    selecting model: DarcyForchheimer
    creating porous zone: cz_solid_48
Selecting finite volume options model type explicitPorositySource
    Source: source49
    - selecting cells using cellZone cz_solid_49
    - selected 2139 cell(s) with volume 0.00214288
Porosity region source49:
    selecting model: DarcyForchheimer
    creating porous zone: cz_solid_49
Selecting finite volume options model type explicitPorositySource
    Source: source50
    - selecting cells using cellZone cz_solid_50
    - selected 2365 cell(s) with volume 0.0021451
Porosity region source50:
    selecting model: DarcyForchheimer
    creating porous zone: cz_solid_50
Selecting finite volume options model type explicitPorositySource
    Source: source51
    - selecting cells using cellZone cz_solid_51
    - selected 2433 cell(s) with volume 0.00214356
Porosity region source51:
    selecting model: DarcyForchheimer
    creating porous zone: cz_solid_51
Selecting finite volume options model type explicitPorositySource
    Source: source52
    - selecting cells using cellZone cz_solid_52
    - selected 2414 cell(s) with volume 0.00214448
Porosity region source52:
    selecting model: DarcyForchheimer
    creating porous zone: cz_solid_52
Selecting finite volume options model type explicitPorositySource
    Source: source53
    - selecting cells using cellZone cz_solid_53
    - selected 2060 cell(s) with volume 0.00214291
Porosity region source53:
    selecting model: DarcyForchheimer
    creating porous zone: cz_solid_53
Selecting finite volume options model type explicitPorositySource
    Source: source54
    - selecting cells using cellZone cz_solid_54
    - selected 1964 cell(s) with volume 0.00214455
Porosity region source54:
    selecting model: DarcyForchheimer
    creating porous zone: cz_solid_54
Selecting finite volume options model type explicitPorositySource
    Source: source55
    - selecting cells using cellZone cz_solid_55
    - selected 2177 cell(s) with volume 0.00214198
Porosity region source55:
    selecting model: DarcyForchheimer
    creating porous zone: cz_solid_55
Selecting finite volume options model type explicitPorositySource
    Source: source56
    - selecting cells using cellZone cz_solid_56
    - selected 2321 cell(s) with volume 0.00214184
Porosity region source56:
    selecting model: DarcyForchheimer
    creating porous zone: cz_solid_56
Selecting finite volume options model type explicitPorositySource
    Source: source57
    - selecting cells using cellZone cz_solid_57
    - selected 2389 cell(s) with volume 0.00214562
Porosity region source57:
    selecting model: DarcyForchheimer
    creating porous zone: cz_solid_57
Selecting finite volume options model type explicitPorositySource
    Source: source58
    - selecting cells using cellZone cz_solid_58
    - selected 2417 cell(s) with volume 0.00214509
Porosity region source58:
    selecting model: DarcyForchheimer
    creating porous zone: cz_solid_58
Selecting finite volume options model type explicitPorositySource
    Source: source59
    - selecting cells using cellZone cz_solid_59
    - selected 1885 cell(s) with volume 0.00213931
Porosity region source59:
    selecting model: DarcyForchheimer
    creating porous zone: cz_solid_59
Selecting finite volume options model type explicitPorositySource
    Source: source60
    - selecting cells using cellZone cz_solid_60
    - selected 2374 cell(s) with volume 0.00214538
Porosity region source60:
    selecting model: DarcyForchheimer
    creating porous zone: cz_solid_60
Selecting finite volume options model type explicitPorositySource
    Source: source61
    - selecting cells using cellZone cz_solid_61
    - selected 2473 cell(s) with volume 0.00214188
Porosity region source61:
    selecting model: DarcyForchheimer
    creating porous zone: cz_solid_61
Selecting finite volume options model type explicitPorositySource
    Source: source62
    - selecting cells using cellZone cz_solid_62
    - selected 2346 cell(s) with volume 0.00214569
Porosity region source62:
    selecting model: DarcyForchheimer
    creating porous zone: cz_solid_62
Selecting finite volume options model type explicitPorositySource
    Source: source63
    - selecting cells using cellZone cz_solid_63
    - selected 2096 cell(s) with volume 0.00214071
Porosity region source63:
    selecting model: DarcyForchheimer
    creating porous zone: cz_solid_63
Selecting finite volume options model type explicitPorositySource
    Source: source64
    - selecting cells using cellZone cz_solid_64
    - selected 2326 cell(s) with volume 0.00214522
Porosity region source64:
    selecting model: DarcyForchheimer
    creating porous zone: cz_solid_64
Selecting finite volume options model type explicitPorositySource
    Source: source65
    - selecting cells using cellZone cz_solid_65
    - selected 1883 cell(s) with volume 0.00214157
Porosity region source65:
    selecting model: DarcyForchheimer
    creating porous zone: cz_solid_65
Selecting finite volume options model type explicitPorositySource
    Source: source66
    - selecting cells using cellZone cz_solid_66
    - selected 2198 cell(s) with volume 0.0021444
Porosity region source66:
    selecting model: DarcyForchheimer
    creating porous zone: cz_solid_66
Selecting finite volume options model type explicitPorositySource
    Source: source67
    - selecting cells using cellZone cz_solid_67
    - selected 2118 cell(s) with volume 0.0021448
Porosity region source67:
    selecting model: DarcyForchheimer
    creating porous zone: cz_solid_67
Selecting finite volume options model type explicitPorositySource
    Source: source68
    - selecting cells using cellZone cz_solid_68
    - selected 1727 cell(s) with volume 0.00214318
Porosity region source68:
    selecting model: DarcyForchheimer
    creating porous zone: cz_solid_68
Selecting finite volume options model type explicitPorositySource
    Source: source69
    - selecting cells using cellZone cz_solid_69
    - selected 2097 cell(s) with volume 0.00214276
Porosity region source69:
    selecting model: DarcyForchheimer
    creating porous zone: cz_solid_69
Selecting finite volume options model type explicitPorositySource
    Source: source70
    - selecting cells using cellZone cz_solid_70
    - selected 2309 cell(s) with volume 0.00214532
Porosity region source70:
    selecting model: DarcyForchheimer
    creating porous zone: cz_solid_70
Selecting finite volume options model type explicitPorositySource
    Source: source71
    - selecting cells using cellZone cz_solid_71
    - selected 2377 cell(s) with volume 0.00214361
Porosity region source71:
    selecting model: DarcyForchheimer
    creating porous zone: cz_solid_71
Selecting finite volume options model type explicitPorositySource
    Source: source72
    - selecting cells using cellZone cz_solid_72
    - selected 2393 cell(s) with volume 0.00214471
Porosity region source72:
    selecting model: DarcyForchheimer
    creating porous zone: cz_solid_72
Selecting finite volume options model type explicitPorositySource
    Source: source73
    - selecting cells using cellZone cz_solid_73
    - selected 1997 cell(s) with volume 0.00214263
Porosity region source73:
    selecting model: DarcyForchheimer
    creating porous zone: cz_solid_73
Selecting finite volume options model type explicitPorositySource
    Source: source74
    - selecting cells using cellZone cz_solid_74
    - selected 1891 cell(s) with volume 0.0021443
Porosity region source74:
    selecting model: DarcyForchheimer
    creating porous zone: cz_solid_74
Selecting finite volume options model type explicitPorositySource
    Source: source75
    - selecting cells using cellZone cz_solid_75
    - selected 2119 cell(s) with volume 0.00214201
Porosity region source75:
    selecting model: DarcyForchheimer
    creating porous zone: cz_solid_75
Selecting finite volume options model type explicitPorositySource
    Source: source76
    - selecting cells using cellZone cz_solid_76
    - selected 2244 cell(s) with volume 0.00214188
Porosity region source76:
    selecting model: DarcyForchheimer
    creating porous zone: cz_solid_76
Selecting finite volume options model type explicitPorositySource
    Source: source77
    - selecting cells using cellZone cz_solid_77
    - selected 2361 cell(s) with volume 0.0021451
Porosity region source77:
    selecting model: DarcyForchheimer
    creating porous zone: cz_solid_77
Selecting finite volume options model type explicitPorositySource
    Source: source78
    - selecting cells using cellZone cz_solid_78
    - selected 2382 cell(s) with volume 0.00214521
Porosity region source78:
    selecting model: DarcyForchheimer
    creating porous zone: cz_solid_78
Selecting finite volume options model type explicitPorositySource
    Source: source79
    - selecting cells using cellZone cz_solid_79
    - selected 1803 cell(s) with volume 0.00213933
Porosity region source79:
    selecting model: DarcyForchheimer
    creating porous zone: cz_solid_79
Selecting finite volume options model type explicitPorositySource
    Source: source80
    - selecting cells using cellZone cz_solid_80
    - selected 2374 cell(s) with volume 0.002146
Porosity region source80:
    selecting model: DarcyForchheimer
    creating porous zone: cz_solid_80
Selecting finite volume options model type explicitPorositySource
    Source: source81
    - selecting cells using cellZone cz_solid_81
    - selected 2467 cell(s) with volume 0.00214307
Porosity region source81:
    selecting model: DarcyForchheimer
    creating porous zone: cz_solid_81
Selecting finite volume options model type explicitPorositySource
    Source: source82
    - selecting cells using cellZone cz_solid_82
    - selected 2343 cell(s) with volume 0.00214632
Porosity region source82:
    selecting model: DarcyForchheimer
    creating porous zone: cz_solid_82
Selecting finite volume options model type explicitPorositySource
    Source: source83
    - selecting cells using cellZone cz_solid_83
    - selected 2093 cell(s) with volume 0.00214157
Porosity region source83:
    selecting model: DarcyForchheimer
    creating porous zone: cz_solid_83
Selecting finite volume options model type explicitPorositySource
    Source: source84
    - selecting cells using cellZone cz_solid_84
    - selected 2326 cell(s) with volume 0.00214522
Porosity region source84:
    selecting model: DarcyForchheimer
    creating porous zone: cz_solid_84
Selecting finite volume options model type explicitPorositySource
    Source: source85
    - selecting cells using cellZone cz_solid_85
    - selected 1877 cell(s) with volume 0.00214226
Porosity region source85:
    selecting model: DarcyForchheimer
    creating porous zone: cz_solid_85
Selecting finite volume options model type explicitPorositySource
    Source: source86
    - selecting cells using cellZone cz_solid_86
    - selected 2189 cell(s) with volume 0.00214553
Porosity region source86:
    selecting model: DarcyForchheimer
    creating porous zone: cz_solid_86
Selecting finite volume options model type explicitPorositySource
    Source: source87
    - selecting cells using cellZone cz_solid_87
    - selected 2109 cell(s) with volume 0.00214604
Porosity region source87:
    selecting model: DarcyForchheimer
    creating porous zone: cz_solid_87
Selecting finite volume options model type explicitPorositySource
    Source: source88
    - selecting cells using cellZone cz_solid_88
    - selected 1718 cell(s) with volume 0.00214456
Porosity region source88:
    selecting model: DarcyForchheimer
    creating porous zone: cz_solid_88
Selecting finite volume options model type explicitPorositySource
    Source: source89
    - selecting cells using cellZone cz_solid_89
    - selected 2091 cell(s) with volume 0.00214382
Porosity region source89:
    selecting model: DarcyForchheimer
    creating porous zone: cz_solid_89
Selecting finite volume options model type explicitPorositySource
    Source: source90
    - selecting cells using cellZone cz_solid_90
    - selected 2303 cell(s) with volume 0.00214595
Porosity region source90:
    selecting model: DarcyForchheimer
    creating porous zone: cz_solid_90
Selecting finite volume options model type explicitPorositySource
    Source: source91
    - selecting cells using cellZone cz_solid_91
    - selected 2374 cell(s) with volume 0.00214446
Porosity region source91:
    selecting model: DarcyForchheimer
    creating porous zone: cz_solid_91
Selecting finite volume options model type explicitPorositySource
    Source: source92
    - selecting cells using cellZone cz_solid_92
    - selected 2393 cell(s) with volume 0.00214479
Porosity region source92:
    selecting model: DarcyForchheimer
    creating porous zone: cz_solid_92
Selecting finite volume options model type explicitPorositySource
    Source: source93
    - selecting cells using cellZone cz_solid_93
    - selected 1991 cell(s) with volume 0.002144
Porosity region source93:
    selecting model: DarcyForchheimer
    creating porous zone: cz_solid_93
Selecting finite volume options model type explicitPorositySource
    Source: source94
    - selecting cells using cellZone cz_solid_94
    - selected 1882 cell(s) with volume 0.00214608
Porosity region source94:
    selecting model: DarcyForchheimer
    creating porous zone: cz_solid_94
Selecting finite volume options model type explicitPorositySource
    Source: source95
    - selecting cells using cellZone cz_solid_95
    - selected 2112 cell(s) with volume 0.00214254
Porosity region source95:
    selecting model: DarcyForchheimer
    creating porous zone: cz_solid_95
Selecting finite volume options model type explicitPorositySource
    Source: source96
    - selecting cells using cellZone cz_solid_96
    - selected 2241 cell(s) with volume 0.00214257
Porosity region source96:
    selecting model: DarcyForchheimer
    creating porous zone: cz_solid_96
Selecting finite volume options model type explicitPorositySource
    Source: source97
    - selecting cells using cellZone cz_solid_97
    - selected 2361 cell(s) with volume 0.00214558
Porosity region source97:
    selecting model: DarcyForchheimer
    creating porous zone: cz_solid_97
Selecting finite volume options model type explicitPorositySource
    Source: source98
    - selecting cells using cellZone cz_solid_98
    - selected 2376 cell(s) with volume 0.00214583
Porosity region source98:
    selecting model: DarcyForchheimer
    creating porous zone: cz_solid_98
Selecting finite volume options model type explicitPorositySource
    Source: source99
    - selecting cells using cellZone cz_solid_99
    - selected 1797 cell(s) with volume 0.00214029
Porosity region source99:
    selecting model: DarcyForchheimer
    creating porous zone: cz_solid_99

Starting time loop

forces porousforces:
--> FOAM Warning : 
    From function Foam::labelHashSet Foam::polyBoundaryMesh::patchSet(const Foam::UList<Foam::wordRe>&, bool, bool) const
    in file meshes/polyMesh/polyBoundaryMesh/polyBoundaryMesh.C at line 798
    Cannot find any patch or group names matching solid_to_fluid
    Including porosity effects


surfaceFieldValue massFlowAtFilter_0:
    total faces  = 1950
    total area   = 0.101735




surfaceFieldValue massFlowAtFilter_1:
    total faces  = 1802
    total area   = 0.101673




surfaceFieldValue massFlowAtFilter_2:
    total faces  = 1953
    total area   = 0.101716




surfaceFieldValue massFlowAtFilter_3:
    total faces  = 1690
    total area   = 0.101675




surfaceFieldValue massFlowAtFilter_4:
    total faces  = 1822
    total area   = 0.101821




surfaceFieldValue massFlowAtFilter_5:
    total faces  = 1697
    total area   = 0.101774




surfaceFieldValue massFlowAtFilter_6:
    total faces  = 1814
    total area   = 0.101927




surfaceFieldValue massFlowAtFilter_7:
    total faces  = 1867
    total area   = 0.101726




surfaceFieldValue massFlowAtFilter_8:
    total faces  = 1711
    total area   = 0.101704




surfaceFieldValue massFlowAtFilter_9:
    total faces  = 1672
    total area   = 0.101728




surfaceFieldValue massFlowAtFilter_10:
    total faces  = 1868
    total area   = 0.10175




surfaceFieldValue massFlowAtFilter_11:
    total faces  = 1795
    total area   = 0.101721




surfaceFieldValue massFlowAtFilter_12:
    total faces  = 1844
    total area   = 0.101731




surfaceFieldValue massFlowAtFilter_13:
    total faces  = 1658
    total area   = 0.101731




surfaceFieldValue massFlowAtFilter_14:
    total faces  = 1794
    total area   = 0.101731




surfaceFieldValue massFlowAtFilter_15:
    total faces  = 1777
    total area   = 0.101756




surfaceFieldValue massFlowAtFilter_16:
    total faces  = 1747
    total area   = 0.101684




surfaceFieldValue massFlowAtFilter_17:
    total faces  = 1833
    total area   = 0.101842




surfaceFieldValue massFlowAtFilter_18:
    total faces  = 1834
    total area   = 0.101811




surfaceFieldValue massFlowAtFilter_19:
    total faces  = 1612
    total area   = 0.101649




surfaceFieldValue massFlowAtFilter_20:
    total faces  = 1932
    total area   = 0.101593




surfaceFieldValue massFlowAtFilter_21:
    total faces  = 1782
    total area   = 0.101628




surfaceFieldValue massFlowAtFilter_22:
    total faces  = 1932
    total area   = 0.101623




surfaceFieldValue massFlowAtFilter_23:
    total faces  = 1676
    total area   = 0.101628




surfaceFieldValue massFlowAtFilter_24:
    total faces  = 1806
    total area   = 0.101629




surfaceFieldValue massFlowAtFilter_25:
    total faces  = 1686
    total area   = 0.101591




surfaceFieldValue massFlowAtFilter_26:
    total faces  = 1798
    total area   = 0.101823




surfaceFieldValue massFlowAtFilter_27:
    total faces  = 1852
    total area   = 0.101649




surfaceFieldValue massFlowAtFilter_28:
    total faces  = 1698
    total area   = 0.101669




surfaceFieldValue massFlowAtFilter_29:
    total faces  = 1652
    total area   = 0.10168




surfaceFieldValue massFlowAtFilter_30:
    total faces  = 1858
    total area   = 0.10173




surfaceFieldValue massFlowAtFilter_31:
    total faces  = 1784
    total area   = 0.101691




surfaceFieldValue massFlowAtFilter_32:
    total faces  = 1822
    total area   = 0.101711




surfaceFieldValue massFlowAtFilter_33:
    total faces  = 1638
    total area   = 0.101706




surfaceFieldValue massFlowAtFilter_34:
    total faces  = 1784
    total area   = 0.10169




surfaceFieldValue massFlowAtFilter_35:
    total faces  = 1758
    total area   = 0.101617




surfaceFieldValue massFlowAtFilter_36:
    total faces  = 1736
    total area   = 0.101651




surfaceFieldValue massFlowAtFilter_37:
    total faces  = 1818
    total area   = 0.101615




surfaceFieldValue massFlowAtFilter_38:
    total faces  = 1812
    total area   = 0.101671




surfaceFieldValue massFlowAtFilter_39:
    total faces  = 1598
    total area   = 0.101583




surfaceFieldValue massFlowAtFilter_40:
    total faces  = 1980
    total area   = 0.101734




surfaceFieldValue massFlowAtFilter_41:
    total faces  = 1826
    total area   = 0.101673




surfaceFieldValue massFlowAtFilter_42:
    total faces  = 1980
    total area   = 0.101709




surfaceFieldValue massFlowAtFilter_43:
    total faces  = 1720
    total area   = 0.101671




surfaceFieldValue massFlowAtFilter_44:
    total faces  = 1852
    total area   = 0.101815




surfaceFieldValue massFlowAtFilter_45:
    total faces  = 1733
    total area   = 0.101788




surfaceFieldValue massFlowAtFilter_46:
    total faces  = 1844
    total area   = 0.101919




surfaceFieldValue massFlowAtFilter_47:
    total faces  = 1900
    total area   = 0.101723




surfaceFieldValue massFlowAtFilter_48:
    total faces  = 1744
    total area   = 0.101691




surfaceFieldValue massFlowAtFilter_49:
    total faces  = 1696
    total area   = 0.101734




surfaceFieldValue massFlowAtFilter_50:
    total faces  = 1904
    total area   = 0.101748




surfaceFieldValue massFlowAtFilter_51:
    total faces  = 1828
    total area   = 0.101713




surfaceFieldValue massFlowAtFilter_52:
    total faces  = 1868
    total area   = 0.101737




surfaceFieldValue massFlowAtFilter_53:
    total faces  = 1682
    total area   = 0.101732




surfaceFieldValue massFlowAtFilter_54:
    total faces  = 1830
    total area   = 0.101715




surfaceFieldValue massFlowAtFilter_55:
    total faces  = 1804
    total area   = 0.101748




surfaceFieldValue massFlowAtFilter_56:
    total faces  = 1780
    total area   = 0.101676




surfaceFieldValue massFlowAtFilter_57:
    total faces  = 1863
    total area   = 0.101845




surfaceFieldValue massFlowAtFilter_58:
    total faces  = 1858
    total area   = 0.101826




surfaceFieldValue massFlowAtFilter_59:
    total faces  = 1642
    total area   = 0.101651




surfaceFieldValue massFlowAtFilter_60:
    total faces  = 1980
    total area   = 0.101733




surfaceFieldValue massFlowAtFilter_61:
    total faces  = 1826
    total area   = 0.101672




surfaceFieldValue massFlowAtFilter_62:
    total faces  = 1980
    total area   = 0.101693




surfaceFieldValue massFlowAtFilter_63:
    total faces  = 1714
    total area   = 0.101662




surfaceFieldValue massFlowAtFilter_64:
    total faces  = 1849
    total area   = 0.101796




surfaceFieldValue massFlowAtFilter_65:
    total faces  = 1718
    total area   = 0.10177




surfaceFieldValue massFlowAtFilter_66:
    total faces  = 1849
    total area   = 0.101824




surfaceFieldValue massFlowAtFilter_67:
    total faces  = 1910
    total area   = 0.101728




surfaceFieldValue massFlowAtFilter_68:
    total faces  = 1736
    total area   = 0.101706




surfaceFieldValue massFlowAtFilter_69:
    total faces  = 1693
    total area   = 0.101726




surfaceFieldValue massFlowAtFilter_70:
    total faces  = 1904
    total area   = 0.101731




surfaceFieldValue massFlowAtFilter_71:
    total faces  = 1828
    total area   = 0.101715




surfaceFieldValue massFlowAtFilter_72:
    total faces  = 1865
    total area   = 0.101727




surfaceFieldValue massFlowAtFilter_73:
    total faces  = 1673
    total area   = 0.101726




surfaceFieldValue massFlowAtFilter_74:
    total faces  = 1828
    total area   = 0.101721




surfaceFieldValue massFlowAtFilter_75:
    total faces  = 1805
    total area   = 0.101747




surfaceFieldValue massFlowAtFilter_76:
    total faces  = 1771
    total area   = 0.101671




surfaceFieldValue massFlowAtFilter_77:
    total faces  = 1863
    total area   = 0.10183




surfaceFieldValue massFlowAtFilter_78:
    total faces  = 1861
    total area   = 0.101805




surfaceFieldValue massFlowAtFilter_79:
    total faces  = 1630
    total area   = 0.101641




surfaceFieldValue massFlowAtFilter_80:
    total faces  = 1980
    total area   = 0.101663




surfaceFieldValue massFlowAtFilter_81:
    total faces  = 1832
    total area   = 0.101558




surfaceFieldValue massFlowAtFilter_82:
    total faces  = 1985
    total area   = 0.101594




surfaceFieldValue massFlowAtFilter_83:
    total faces  = 1719
    total area   = 0.101558




surfaceFieldValue massFlowAtFilter_84:
    total faces  = 1849
    total area   = 0.10166




surfaceFieldValue massFlowAtFilter_85:
    total faces  = 1724
    total area   = 0.101618




surfaceFieldValue massFlowAtFilter_86:
    total faces  = 1856
    total area   = 0.10172




surfaceFieldValue massFlowAtFilter_87:
    total faces  = 1917
    total area   = 0.1016




surfaceFieldValue massFlowAtFilter_88:
    total faces  = 1743
    total area   = 0.101573




surfaceFieldValue massFlowAtFilter_89:
    total faces  = 1699
    total area   = 0.101628




surfaceFieldValue massFlowAtFilter_90:
    total faces  = 1910
    total area   = 0.101649




surfaceFieldValue massFlowAtFilter_91:
    total faces  = 1833
    total area   = 0.10161




surfaceFieldValue massFlowAtFilter_92:
    total faces  = 1865
    total area   = 0.10165




surfaceFieldValue massFlowAtFilter_93:
    total faces  = 1679
    total area   = 0.101622




surfaceFieldValue massFlowAtFilter_94:
    total faces  = 1835
    total area   = 0.10158




surfaceFieldValue massFlowAtFilter_95:
    total faces  = 1802
    total area   = 0.101633




surfaceFieldValue massFlowAtFilter_96:
    total faces  = 1776
    total area   = 0.101585




surfaceFieldValue massFlowAtFilter_97:
    total faces  = 1863
    total area   = 0.101678




surfaceFieldValue massFlowAtFilter_98:
    total faces  = 1867
    total area   = 0.101644




surfaceFieldValue massFlowAtFilter_99:
    total faces  = 1636
    total area   = 0.101541


Time = 1

DILUPBiCG:  Solving for Ux, Initial residual = 1, Final residual = 1.7642e-06, No Iterations 6
DILUPBiCG:  Solving for Uy, Initial residual = 1, Final residual = 4.28573e-06, No Iterations 7
DILUPBiCG:  Solving for Uz, Initial residual = 1, Final residual = 6.21167e-06, No Iterations 6
DICPCG:  Solving for p, Initial residual = 1, Final residual = 0.0954793, No Iterations 325
DICPCG:  Solving for p, Initial residual = 0.00363978, Final residual = 0.00024955, No Iterations 4
DICPCG:  Solving for p, Initial residual = 0.000510525, Final residual = 5.09082e-05, No Iterations 28
time step continuity errors : sum local = 0.0506862, global = -0.000590877, cumulative = -0.000590877
DILUPBiCG:  Solving for epsilon, Initial residual = 0.0522627, Final residual = 9.57857e-06, No Iterations 3
DILUPBiCG:  Solving for k, Initial residual = 1, Final residual = 5.67244e-07, No Iterations 6
ExecutionTime = 6.75 s  ClockTime = 7 s

Time = 2

DILUPBiCG:  Solving for Ux, Initial residual = 0.000135548, Final residual = 3.34206e-06, No Iterations 2
DILUPBiCG:  Solving for Uy, Initial residual = 5.66967e-05, Final residual = 9.91654e-06, No Iterations 1
DILUPBiCG:  Solving for Uz, Initial residual = 0.000122049, Final residual = 2.32491e-06, No Iterations 2
DICPCG:  Solving for p, Initial residual = 0.0147957, Final residual = 0.00144428, No Iterations 121
DICPCG:  Solving for p, Initial residual = 0.00626026, Final residual = 0.000614367, No Iterations 258
DICPCG:  Solving for p, Initial residual = 0.00958805, Final residual = 0.000941525, No Iterations 9
time step continuity errors : sum local = 0.0775187, global = 0.000615757, cumulative = 2.48808e-05
DILUPBiCG:  Solving for epsilon, Initial residual = 0.0135955, Final residual = 7.3498e-07, No Iterations 4
DILUPBiCG:  Solving for k, Initial residual = 0.520576, Final residual = 4.66025e-08, No Iterations 7
ExecutionTime = 11.39 s  ClockTime = 11 s

Time = 3

DILUPBiCG:  Solving for Ux, Initial residual = 1.91398e-05, Final residual = 3.24134e-06, No Iterations 1
DILUPBiCG:  Solving for Uy, Initial residual = 1.09289e-05, Final residual = 1.98846e-06, No Iterations 1
DILUPBiCG:  Solving for Uz, Initial residual = 2.89223e-05, Final residual = 8.72397e-06, No Iterations 1
DICPCG:  Solving for p, Initial residual = 0.0207805, Final residual = 0.00196517, No Iterations 295
DICPCG:  Solving for p, Initial residual = 0.00767724, Final residual = 0.000614426, No Iterations 4
DICPCG:  Solving for p, Initial residual = 0.00107425, Final residual = 0.000106254, No Iterations 48
time step continuity errors : sum local = 0.0562904, global = 0.000290944, cumulative = 0.000315825
DILUPBiCG:  Solving for epsilon, Initial residual = 0.0172791, Final residual = 1.16744e-06, No Iterations 4
DILUPBiCG:  Solving for k, Initial residual = 0.25499, Final residual = 2.37082e-08, No Iterations 7
ExecutionTime = 15.63 s  ClockTime = 16 s

Time = 4

DILUPBiCG:  Solving for Ux, Initial residual = 5.4571e-06, Final residual = 5.4571e-06, No Iterations 0
DILUPBiCG:  Solving for Uy, Initial residual = 2.10382e-06, Final residual = 2.10382e-06, No Iterations 0
DILUPBiCG:  Solving for Uz, Initial residual = 6.87535e-06, Final residual = 6.87535e-06, No Iterations 0
DICPCG:  Solving for p, Initial residual = 0.0656671, Final residual = 0.00638469, No Iterations 302
DICPCG:  Solving for p, Initial residual = 0.00557964, Final residual = 0.000420344, No Iterations 4
DICPCG:  Solving for p, Initial residual = 0.000763118, Final residual = 7.54676e-05, No Iterations 44
time step continuity errors : sum local = 0.0364611, global = -6.89251e-05, cumulative = 0.0002469
DILUPBiCG:  Solving for epsilon, Initial residual = 0.0160169, Final residual = 5.85402e-06, No Iterations 3
DILUPBiCG:  Solving for k, Initial residual = 0.148868, Final residual = 6.69194e-07, No Iterations 5
ExecutionTime = 19.71 s  ClockTime = 20 s

Time = 5

DILUPBiCG:  Solving for Ux, Initial residual = 1.6074e-05, Final residual = 3.15231e-06, No Iterations 1
DILUPBiCG:  Solving for Uy, Initial residual = 8.70772e-06, Final residual = 8.70772e-06, No Iterations 0
DILUPBiCG:  Solving for Uz, Initial residual = 1.49307e-05, Final residual = 3.59705e-06, No Iterations 1
DICPCG:  Solving for p, Initial residual = 0.022601, Final residual = 0.00225709, No Iterations 47
DICPCG:  Solving for p, Initial residual = 0.00677153, Final residual = 0.000650584, No Iterations 266
DICPCG:  Solving for p, Initial residual = 0.00223233, Final residual = 0.000215944, No Iterations 5
time step continuity errors : sum local = 0.0645369, global = -0.000873829, cumulative = -0.000626929
DILUPBiCG:  Solving for epsilon, Initial residual = 0.0132998, Final residual = 4.40222e-06, No Iterations 3
DILUPBiCG:  Solving for k, Initial residual = 0.107286, Final residual = 5.87695e-07, No Iterations 5
ExecutionTime = 23.57 s  ClockTime = 24 s

Time = 6

DILUPBiCG:  Solving for Ux, Initial residual = 2.01104e-05, Final residual = 4.39862e-06, No Iterations 1
DILUPBiCG:  Solving for Uy, Initial residual = 1.26629e-05, Final residual = 2.38058e-06, No Iterations 1
DILUPBiCG:  Solving for Uz, Initial residual = 1.66673e-05, Final residual = 5.04453e-06, No Iterations 1
DICPCG:  Solving for p, Initial residual = 0.0262324, Final residual = 0.00252207, No Iterations 289
DICPCG:  Solving for p, Initial residual = 0.00836769, Final residual = 0.000817937, No Iterations 5
DICPCG:  Solving for p, Initial residual = 0.00124575, Final residual = 0.00012023, No Iterations 55
time step continuity errors : sum local = 0.047952, global = -0.000526877, cumulative = -0.00115381
DILUPBiCG:  Solving for epsilon, Initial residual = 0.0125095, Final residual = 4.93943e-06, No Iterations 3
DILUPBiCG:  Solving for k, Initial residual = 0.0913526, Final residual = 6.17179e-07, No Iterations 5
ExecutionTime = 27.73 s  ClockTime = 28 s

Time = 7

DILUPBiCG:  Solving for Ux, Initial residual = 1.33762e-05, Final residual = 4.32953e-07, No Iterations 2
DILUPBiCG:  Solving for Uy, Initial residual = 4.1078e-06, Final residual = 4.1078e-06, No Iterations 0
DILUPBiCG:  Solving for Uz, Initial residual = 8.37813e-06, Final residual = 8.37813e-06, No Iterations 0
DICPCG:  Solving for p, Initial residual = 0.0951346, Final residual = 0.00917065, No Iterations 292
DICPCG:  Solving for p, Initial residual = 0.00499402, Final residual = 0.000483115, No Iterations 4
DICPCG:  Solving for p, Initial residual = 0.000725895, Final residual = 7.17772e-05, No Iterations 49
time step continuity errors : sum local = 0.0311534, global = -4.19085e-05, cumulative = -0.00119571
DILUPBiCG:  Solving for epsilon, Initial residual = 0.0113994, Final residual = 7.65552e-06, No Iterations 3
DILUPBiCG:  Solving for k, Initial residual = 0.0748112, Final residual = 5.05608e-08, No Iterations 6
ExecutionTime = 31.85 s  ClockTime = 32 s

Time = 8

DILUPBiCG:  Solving for Ux, Initial residual = 1.75992e-05, Final residual = 3.45353e-06, No Iterations 1
DILUPBiCG:  Solving for Uy, Initial residual = 1.11863e-05, Final residual = 2.11137e-06, No Iterations 1
DILUPBiCG:  Solving for Uz, Initial residual = 1.7016e-05, Final residual = 3.92794e-06, No Iterations 1
DICPCG:  Solving for p, Initial residual = 0.027843, Final residual = 0.00272563, No Iterations 62
DICPCG:  Solving for p, Initial residual = 0.00779646, Final residual = 0.000773587, No Iterations 84
DICPCG:  Solving for p, Initial residual = 0.00191385, Final residual = 0.00018946, No Iterations 264
time step continuity errors : sum local = 0.0213508, global = 9.4007e-06, cumulative = -0.00118631
DILUPBiCG:  Solving for epsilon, Initial residual = 0.0116504, Final residual = 8.4638e-06, No Iterations 3
DILUPBiCG:  Solving for k, Initial residual = 0.0623437, Final residual = 4.62782e-08, No Iterations 6
ExecutionTime = 36.53 s  ClockTime = 37 s

Time = 9

DILUPBiCG:  Solving for Ux, Initial residual = 6.11353e-06, Final residual = 6.11353e-06, No Iterations 0
DILUPBiCG:  Solving for Uy, Initial residual = 6.16602e-06, Final residual = 6.16602e-06, No Iterations 0
DILUPBiCG:  Solving for Uz, Initial residual = 7.95393e-06, Final residual = 7.95393e-06, No Iterations 0
DICPCG:  Solving for p, Initial residual = 0.0227619, Final residual = 0.00223234, No Iterations 285
DICPCG:  Solving for p, Initial residual = 0.0327082, Final residual = 0.00322576, No Iterations 19
DICPCG:  Solving for p, Initial residual = 0.00598735, Final residual = 0.000596051, No Iterations 46
time step continuity errors : sum local = 0.0173589, global = 3.05461e-05, cumulative = -0.00115577
DILUPBiCG:  Solving for epsilon, Initial residual = 0.0109483, Final residual = 4.27448e-06, No Iterations 3
DILUPBiCG:  Solving for k, Initial residual = 0.0552739, Final residual = 5.25241e-08, No Iterations 6
ExecutionTime = 40.6 s  ClockTime = 41 s

Time = 10

DILUPBiCG:  Solving for Ux, Initial residual = 3.54815e-06, Final residual = 3.54815e-06, No Iterations 0
DILUPBiCG:  Solving for Uy, Initial residual = 3.65781e-06, Final residual = 3.65781e-06, No Iterations 0
DILUPBiCG:  Solving for Uz, Initial residual = 4.57886e-06, Final residual = 4.57886e-06, No Iterations 0
DICPCG:  Solving for p, Initial residual = 0.0214009, Final residual = 0.00200487, No Iterations 291
DICPCG:  Solving for p, Initial residual = 0.00937986, Final residual = 0.000926503, No Iterations 8
DICPCG:  Solving for p, Initial residual = 0.00146558, Final residual = 0.000138282, No Iterations 54
time step continuity errors : sum local = 0.0121133, global = 0.000136461, cumulative = -0.00101931
DILUPBiCG:  Solving for epsilon, Initial residual = 0.0102983, Final residual = 3.59923e-06, No Iterations 3
DILUPBiCG:  Solving for k, Initial residual = 0.050196, Final residual = 6.00986e-08, No Iterations 6
ExecutionTime = 44.72 s  ClockTime = 45 s

Time = 11

DILUPBiCG:  Solving for Ux, Initial residual = 5.29134e-06, Final residual = 5.29134e-06, No Iterations 0
DILUPBiCG:  Solving for Uy, Initial residual = 1.27343e-06, Final residual = 1.27343e-06, No Iterations 0
DILUPBiCG:  Solving for Uz, Initial residual = 4.75578e-06, Final residual = 4.75578e-06, No Iterations 0
DICPCG:  Solving for p, Initial residual = 0.038309, Final residual = 0.00382638, No Iterations 293
DICPCG:  Solving for p, Initial residual = 0.00552334, Final residual = 0.00051309, No Iterations 5
DICPCG:  Solving for p, Initial residual = 0.000794959, Final residual = 7.74216e-05, No Iterations 56
time step continuity errors : sum local = 0.00792328, global = 8.07984e-05, cumulative = -0.000938509
DILUPBiCG:  Solving for epsilon, Initial residual = 0.00969466, Final residual = 3.33493e-06, No Iterations 3
DILUPBiCG:  Solving for k, Initial residual = 0.0462766, Final residual = 6.86447e-08, No Iterations 6
ExecutionTime = 48.85 s  ClockTime = 49 s

Time = 12

DILUPBiCG:  Solving for Ux, Initial residual = 6.6368e-06, Final residual = 6.6368e-06, No Iterations 0
DILUPBiCG:  Solving for Uy, Initial residual = 1.41693e-06, Final residual = 1.41693e-06, No Iterations 0
DILUPBiCG:  Solving for Uz, Initial residual = 5.62308e-06, Final residual = 5.62308e-06, No Iterations 0
DICPCG:  Solving for p, Initial residual = 0.0473778, Final residual = 0.0047149, No Iterations 291
DICPCG:  Solving for p, Initial residual = 0.00415686, Final residual = 0.000406301, No Iterations 15
DICPCG:  Solving for p, Initial residual = 0.0007333, Final residual = 6.97849e-05, No Iterations 45
time step continuity errors : sum local = 0.0057361, global = 1.06083e-05, cumulative = -0.0009279
DILUPBiCG:  Solving for epsilon, Initial residual = 0.00925519, Final residual = 3.2213e-06, No Iterations 3
DILUPBiCG:  Solving for k, Initial residual = 0.0432446, Final residual = 9.46523e-07, No Iterations 5
ExecutionTime = 52.93 s  ClockTime = 53 s

Time = 13

DILUPBiCG:  Solving for Ux, Initial residual = 6.32851e-06, Final residual = 6.32851e-06, No Iterations 0
DILUPBiCG:  Solving for Uy, Initial residual = 2.32728e-06, Final residual = 2.32728e-06, No Iterations 0
DILUPBiCG:  Solving for Uz, Initial residual = 5.75849e-06, Final residual = 5.75849e-06, No Iterations 0
DICPCG:  Solving for p, Initial residual = 0.0263682, Final residual = 0.00262635, No Iterations 64
DICPCG:  Solving for p, Initial residual = 0.00761329, Final residual = 0.000722631, No Iterations 69
DICPCG:  Solving for p, Initial residual = 0.00193027, Final residual = 0.000186509, No Iterations 266
time step continuity errors : sum local = 0.00711008, global = -4.93652e-05, cumulative = -0.000977266
DILUPBiCG:  Solving for epsilon, Initial residual = 0.0090051, Final residual = 3.23739e-06, No Iterations 3
DILUPBiCG:  Solving for k, Initial residual = 0.0407668, Final residual = 6.26736e-07, No Iterations 5
ExecutionTime = 57.42 s  ClockTime = 57 s

Time = 14

DILUPBiCG:  Solving for Ux, Initial residual = 4.66793e-06, Final residual = 4.66793e-06, No Iterations 0
DILUPBiCG:  Solving for Uy, Initial residual = 2.51602e-06, Final residual = 2.51602e-06, No Iterations 0
DILUPBiCG:  Solving for Uz, Initial residual = 4.59834e-06, Final residual = 4.59834e-06, No Iterations 0
DICPCG:  Solving for p, Initial residual = 0.0227529, Final residual = 0.00219732, No Iterations 100
DICPCG:  Solving for p, Initial residual = 0.00814875, Final residual = 0.000803457, No Iterations 222
DICPCG:  Solving for p, Initial residual = 0.0393173, Final residual = 0.00376569, No Iterations 8
time step continuity errors : sum local = 0.0150389, global = -0.000162099, cumulative = -0.00113936
DILUPBiCG:  Solving for epsilon, Initial residual = 0.00888995, Final residual = 3.51076e-06, No Iterations 3
DILUPBiCG:  Solving for k, Initial residual = 0.0385539, Final residual = 4.07608e-07, No Iterations 5
ExecutionTime = 61.34 s  ClockTime = 61 s

Time = 15

DILUPBiCG:  Solving for Ux, Initial residual = 2.91667e-06, Final residual = 2.91667e-06, No Iterations 0
DILUPBiCG:  Solving for Uy, Initial residual = 1.92692e-06, Final residual = 1.92692e-06, No Iterations 0
DILUPBiCG:  Solving for Uz, Initial residual = 3.04785e-06, Final residual = 3.04785e-06, No Iterations 0
DICPCG:  Solving for p, Initial residual = 0.0230746, Final residual = 0.00214522, No Iterations 290
DICPCG:  Solving for p, Initial residual = 0.0111132, Final residual = 0.00110209, No Iterations 16
DICPCG:  Solving for p, Initial residual = 0.00191938, Final residual = 0.000191534, No Iterations 53
time step continuity errors : sum local = 0.00580758, global = -5.93946e-05, cumulative = -0.00119876
DILUPBiCG:  Solving for epsilon, Initial residual = 0.00881217, Final residual = 4.67526e-06, No Iterations 3
DILUPBiCG:  Solving for k, Initial residual = 0.0364315, Final residual = 2.35031e-07, No Iterations 5
ExecutionTime = 65.47 s  ClockTime = 66 s

Time = 16

DILUPBiCG:  Solving for Ux, Initial residual = 2.59584e-06, Final residual = 2.59584e-06, No Iterations 0
DILUPBiCG:  Solving for Uy, Initial residual = 9.55979e-07, Final residual = 9.55979e-07, No Iterations 0
DILUPBiCG:  Solving for Uz, Initial residual = 2.61923e-06, Final residual = 2.61923e-06, No Iterations 0
DICPCG:  Solving for p, Initial residual = 0.0350589, Final residual = 0.00348969, No Iterations 293
DICPCG:  Solving for p, Initial residual = 0.00604779, Final residual = 0.000592977, No Iterations 9
DICPCG:  Solving for p, Initial residual = 0.000952728, Final residual = 9.26896e-05, No Iterations 54
time step continuity errors : sum local = 0.00399912, global = -9.41313e-05, cumulative = -0.00129289
DILUPBiCG:  Solving for epsilon, Initial residual = 0.00875632, Final residual = 9.02374e-07, No Iterations 4
DILUPBiCG:  Solving for k, Initial residual = 0.0344269, Final residual = 4.24606e-07, No Iterations 5
ExecutionTime = 69.61 s  ClockTime = 70 s

Time = 17

DILUPBiCG:  Solving for Ux, Initial residual = 2.88472e-06, Final residual = 2.88472e-06, No Iterations 0
DILUPBiCG:  Solving for Uy, Initial residual = 5.36697e-07, Final residual = 5.36697e-07, No Iterations 0
DILUPBiCG:  Solving for Uz, Initial residual = 2.83417e-06, Final residual = 2.83417e-06, No Iterations 0
DICPCG:  Solving for p, Initial residual = 0.0565194, Final residual = 0.00539123, No Iterations 292
DICPCG:  Solving for p, Initial residual = 0.00406369, Final residual = 0.000406113, No Iterations 9
DICPCG:  Solving for p, Initial residual = 0.000662201, Final residual = 6.29372e-05, No Iterations 50
time step continuity errors : sum local = 0.00254867, global = -1.57931e-05, cumulative = -0.00130868
DILUPBiCG:  Solving for epsilon, Initial residual = 0.00864876, Final residual = 5.99207e-06, No Iterations 3
DILUPBiCG:  Solving for k, Initial residual = 0.0325363, Final residual = 8.72887e-07, No Iterations 4
ExecutionTime = 73.66 s  ClockTime = 74 s

Time = 18

DILUPBiCG:  Solving for Ux, Initial residual = 2.74944e-06, Final residual = 2.74944e-06, No Iterations 0
DILUPBiCG:  Solving for Uy, Initial residual = 9.67503e-07, Final residual = 9.67503e-07, No Iterations 0
DILUPBiCG:  Solving for Uz, Initial residual = 2.96335e-06, Final residual = 2.96335e-06, No Iterations 0
DICPCG:  Solving for p, Initial residual = 0.0232031, Final residual = 0.00229561, No Iterations 46
DICPCG:  Solving for p, Initial residual = 0.00584445, Final residual = 0.000579682, No Iterations 271
DICPCG:  Solving for p, Initial residual = 0.00201588, Final residual = 0.000200909, No Iterations 4
time step continuity errors : sum local = 0.00558628, global = 1.922e-05, cumulative = -0.00128946
DILUPBiCG:  Solving for epsilon, Initial residual = 0.00851239, Final residual = 3.87145e-06, No Iterations 3
DILUPBiCG:  Solving for k, Initial residual = 0.0308223, Final residual = 8.27152e-07, No Iterations 4
ExecutionTime = 77.44 s  ClockTime = 78 s

Time = 19

DILUPBiCG:  Solving for Ux, Initial residual = 2.2398e-06, Final residual = 2.2398e-06, No Iterations 0
DILUPBiCG:  Solving for Uy, Initial residual = 1.11994e-06, Final residual = 1.11994e-06, No Iterations 0
DILUPBiCG:  Solving for Uz, Initial residual = 2.73243e-06, Final residual = 2.73243e-06, No Iterations 0
DICPCG:  Solving for p, Initial residual = 0.0183872, Final residual = 0.00173574, No Iterations 95
DICPCG:  Solving for p, Initial residual = 0.0057951, Final residual = 0.000537683, No Iterations 257
DICPCG:  Solving for p, Initial residual = 0.00385337, Final residual = 0.000385269, No Iterations 16
time step continuity errors : sum local = 0.00459789, global = -3.66081e-05, cumulative = -0.00132607
DILUPBiCG:  Solving for epsilon, Initial residual = 0.00837158, Final residual = 3.07735e-06, No Iterations 3
DILUPBiCG:  Solving for k, Initial residual = 0.0293114, Final residual = 8.19006e-07, No Iterations 4
ExecutionTime = 81.72 s  ClockTime = 82 s

Time = 20

DILUPBiCG:  Solving for Ux, Initial residual = 1.76504e-06, Final residual = 1.76504e-06, No Iterations 0
DILUPBiCG:  Solving for Uy, Initial residual = 9.62875e-07, Final residual = 9.62875e-07, No Iterations 0
DILUPBiCG:  Solving for Uz, Initial residual = 2.33594e-06, Final residual = 2.33594e-06, No Iterations 0
DICPCG:  Solving for p, Initial residual = 0.0171644, Final residual = 0.00166048, No Iterations 288
DICPCG:  Solving for p, Initial residual = 0.0242953, Final residual = 0.00236828, No Iterations 32
DICPCG:  Solving for p, Initial residual = 0.00492426, Final residual = 0.000462504, No Iterations 49
time step continuity errors : sum local = 0.00248579, global = 1.27994e-05, cumulative = -0.00131327
DILUPBiCG:  Solving for epsilon, Initial residual = 0.00825605, Final residual = 2.66329e-06, No Iterations 3
DILUPBiCG:  Solving for k, Initial residual = 0.0280065, Final residual = 7.57468e-07, No Iterations 4
ExecutionTime = 85.95 s  ClockTime = 86 s

forces porousforces write:
    sum of forces:
        pressure : (0 0 0)
        viscous  : (0 0 0)
        porous   : (88977.4 5.32614e-13 69575.7)
    sum of moments:
        pressure : (0 0 0)
        viscous  : (0 0 0)
        porous   : (62100.8 11317.7 -77550.5)

volFieldValue volFieldValue_0 write:
    volIntegrate(cz_solid_0) of U = (1.79566e-09 -4.61504e-09 -4.29412e-09)

surfaceFieldValue massFlowAtFilter_0 write:
    sum(fz_solid_0) of phi = 1.73028e-07

volFieldValue volFieldValue_1 write:
    volIntegrate(cz_solid_1) of U = (4.19768e-10 -4.16807e-09 -3.79908e-09)

surfaceFieldValue massFlowAtFilter_1 write:
    sum(fz_solid_1) of phi = 3.03658e-05

volFieldValue volFieldValue_2 write:
    volIntegrate(cz_solid_2) of U = (-6.61819e-10 -4.16633e-09 -3.24031e-09)

surfaceFieldValue massFlowAtFilter_2 write:
    sum(fz_solid_2) of phi = 1.70112e-06

volFieldValue volFieldValue_3 write:
    volIntegrate(cz_solid_3) of U = (-1.53841e-09 -4.01492e-09 -2.47158e-09)

surfaceFieldValue massFlowAtFilter_3 write:
    sum(fz_solid_3) of phi = -3.44566e-05

volFieldValue volFieldValue_4 write:
    volIntegrate(cz_solid_4) of U = (-2.30388e-09 -3.96521e-09 -1.70115e-09)

surfaceFieldValue massFlowAtFilter_4 write:
    sum(fz_solid_4) of phi = -2.4872e-05

volFieldValue volFieldValue_5 write:
    volIntegrate(cz_solid_5) of U = (-2.96597e-09 -3.94078e-09 -8.23908e-10)

surfaceFieldValue massFlowAtFilter_5 write:
    sum(fz_solid_5) of phi = -5.5779e-05

volFieldValue volFieldValue_6 write:
    volIntegrate(cz_solid_6) of U = (-3.54552e-09 -3.93601e-09 2.1351e-10)

surfaceFieldValue massFlowAtFilter_6 write:
    sum(fz_solid_6) of phi = -4.13899e-05

volFieldValue volFieldValue_7 write:
    volIntegrate(cz_solid_7) of U = (-3.87232e-09 -4.05686e-09 1.58334e-09)

surfaceFieldValue massFlowAtFilter_7 write:
    sum(fz_solid_7) of phi = -4.24607e-05

volFieldValue volFieldValue_8 write:
    volIntegrate(cz_solid_8) of U = (-3.78082e-09 -4.34684e-09 3.02348e-09)

surfaceFieldValue massFlowAtFilter_8 write:
    sum(fz_solid_8) of phi = 1.3952e-05

volFieldValue volFieldValue_9 write:
    volIntegrate(cz_solid_9) of U = (-3.10413e-09 -4.58826e-09 4.57152e-09)

surfaceFieldValue massFlowAtFilter_9 write:
    sum(fz_solid_9) of phi = -7.10071e-05

volFieldValue volFieldValue_10 write:
    volIntegrate(cz_solid_10) of U = (-1.63296e-09 -4.94389e-09 6.00766e-09)

surfaceFieldValue massFlowAtFilter_10 write:
    sum(fz_solid_10) of phi = 2.13759e-05

volFieldValue volFieldValue_11 write:
    volIntegrate(cz_solid_11) of U = (1.36669e-10 -5.17412e-09 6.91895e-09)

surfaceFieldValue massFlowAtFilter_11 write:
    sum(fz_solid_11) of phi = -5.2342e-05

volFieldValue volFieldValue_12 write:
    volIntegrate(cz_solid_12) of U = (2.55604e-09 -5.53944e-09 7.26809e-09)

surfaceFieldValue massFlowAtFilter_12 write:
    sum(fz_solid_12) of phi = -0.000184625

volFieldValue volFieldValue_13 write:
    volIntegrate(cz_solid_13) of U = (5.02188e-09 -5.95839e-09 6.59253e-09)

surfaceFieldValue massFlowAtFilter_13 write:
    sum(fz_solid_13) of phi = 6.2635e-05

volFieldValue volFieldValue_14 write:
    volIntegrate(cz_solid_14) of U = (7.12561e-09 -6.76851e-09 5.04016e-09)

surfaceFieldValue massFlowAtFilter_14 write:
    sum(fz_solid_14) of phi = -7.97987e-05

volFieldValue volFieldValue_15 write:
    volIntegrate(cz_solid_15) of U = (8.37414e-09 -7.07212e-09 2.61855e-09)

surfaceFieldValue massFlowAtFilter_15 write:
    sum(fz_solid_15) of phi = 6.80947e-05

volFieldValue volFieldValue_16 write:
    volIntegrate(cz_solid_16) of U = (8.26195e-09 -6.92083e-09 1.72282e-11)

surfaceFieldValue massFlowAtFilter_16 write:
    sum(fz_solid_16) of phi = -0.000104513

volFieldValue volFieldValue_17 write:
    volIntegrate(cz_solid_17) of U = (7.1079e-09 -6.52176e-09 -2.22648e-09)

surfaceFieldValue massFlowAtFilter_17 write:
    sum(fz_solid_17) of phi = -4.07141e-08

volFieldValue volFieldValue_18 write:
    volIntegrate(cz_solid_18) of U = (5.48266e-09 -5.99953e-09 -3.59221e-09)

surfaceFieldValue massFlowAtFilter_18 write:
    sum(fz_solid_18) of phi = 7.72349e-05

volFieldValue volFieldValue_19 write:
    volIntegrate(cz_solid_19) of U = (3.56879e-09 -5.2984e-09 -4.3105e-09)

surfaceFieldValue massFlowAtFilter_19 write:
    sum(fz_solid_19) of phi = 6.68917e-05

volFieldValue volFieldValue_20 write:
    volIntegrate(cz_solid_20) of U = (1.49877e-09 -9.2846e-09 -3.16776e-09)

surfaceFieldValue massFlowAtFilter_20 write:
    sum(fz_solid_20) of phi = -1.43066e-05

volFieldValue volFieldValue_21 write:
    volIntegrate(cz_solid_21) of U = (3.9231e-10 -8.50067e-09 -2.81919e-09)

surfaceFieldValue massFlowAtFilter_21 write:
    sum(fz_solid_21) of phi = 1.94347e-05

volFieldValue volFieldValue_22 write:
    volIntegrate(cz_solid_22) of U = (-4.54292e-10 -8.4333e-09 -2.39897e-09)

surfaceFieldValue massFlowAtFilter_22 write:
    sum(fz_solid_22) of phi = 5.87335e-06

volFieldValue volFieldValue_23 write:
    volIntegrate(cz_solid_23) of U = (-1.13438e-09 -7.98773e-09 -1.80338e-09)

surfaceFieldValue massFlowAtFilter_23 write:
    sum(fz_solid_23) of phi = -1.71269e-05

volFieldValue volFieldValue_24 write:
    volIntegrate(cz_solid_24) of U = (-1.70435e-09 -7.90942e-09 -1.19862e-09)

surfaceFieldValue massFlowAtFilter_24 write:
    sum(fz_solid_24) of phi = -2.74242e-05

volFieldValue volFieldValue_25 write:
    volIntegrate(cz_solid_25) of U = (-2.20941e-09 -7.79008e-09 -5.32339e-10)

surfaceFieldValue massFlowAtFilter_25 write:
    sum(fz_solid_25) of phi = -2.70698e-06

volFieldValue volFieldValue_26 write:
    volIntegrate(cz_solid_26) of U = (-2.64631e-09 -7.7409e-09 2.66221e-10)

surfaceFieldValue massFlowAtFilter_26 write:
    sum(fz_solid_26) of phi = -6.16702e-06

volFieldValue volFieldValue_27 write:
    volIntegrate(cz_solid_27) of U = (-2.86138e-09 -8.10291e-09 1.33056e-09)

surfaceFieldValue massFlowAtFilter_27 write:
    sum(fz_solid_27) of phi = 3.39531e-06

volFieldValue volFieldValue_28 write:
    volIntegrate(cz_solid_28) of U = (-2.74535e-09 -8.64221e-09 2.43144e-09)

surfaceFieldValue massFlowAtFilter_28 write:
    sum(fz_solid_28) of phi = -1.17066e-05

volFieldValue volFieldValue_29 write:
    volIntegrate(cz_solid_29) of U = (-2.16999e-09 -9.25085e-09 3.58681e-09)

surfaceFieldValue massFlowAtFilter_29 write:
    sum(fz_solid_29) of phi = 5.12064e-05

volFieldValue volFieldValue_30 write:
    volIntegrate(cz_solid_30) of U = (-9.73277e-10 -1.02838e-08 4.62821e-09)

surfaceFieldValue massFlowAtFilter_30 write:
    sum(fz_solid_30) of phi = 2.55608e-05

volFieldValue volFieldValue_31 write:
    volIntegrate(cz_solid_31) of U = (3.91962e-10 -1.14406e-08 5.21817e-09)

surfaceFieldValue massFlowAtFilter_31 write:
    sum(fz_solid_31) of phi = -2.17454e-05

volFieldValue volFieldValue_32 write:
    volIntegrate(cz_solid_32) of U = (2.18663e-09 -1.31708e-08 5.39111e-09)

surfaceFieldValue massFlowAtFilter_32 write:
    sum(fz_solid_32) of phi = -3.94282e-05

volFieldValue volFieldValue_33 write:
    volIntegrate(cz_solid_33) of U = (3.96718e-09 -1.43246e-08 4.89498e-09)

surfaceFieldValue massFlowAtFilter_33 write:
    sum(fz_solid_33) of phi = -2.99468e-06

volFieldValue volFieldValue_34 write:
    volIntegrate(cz_solid_34) of U = (5.52355e-09 -1.53206e-08 3.87812e-09)

surfaceFieldValue massFlowAtFilter_34 write:
    sum(fz_solid_34) of phi = -4.37925e-05

volFieldValue volFieldValue_35 write:
    volIntegrate(cz_solid_35) of U = (6.51419e-09 -1.58102e-08 2.25612e-09)

surfaceFieldValue massFlowAtFilter_35 write:
    sum(fz_solid_35) of phi = 2.91254e-05

volFieldValue volFieldValue_36 write:
    volIntegrate(cz_solid_36) of U = (6.53582e-09 -1.50577e-08 4.00322e-10)

surfaceFieldValue massFlowAtFilter_36 write:
    sum(fz_solid_36) of phi = -1.7941e-05

volFieldValue volFieldValue_37 write:
    volIntegrate(cz_solid_37) of U = (5.72883e-09 -1.3328e-08 -1.34051e-09)

surfaceFieldValue massFlowAtFilter_37 write:
    sum(fz_solid_37) of phi = 8.2144e-05

volFieldValue volFieldValue_38 write:
    volIntegrate(cz_solid_38) of U = (4.48968e-09 -1.19285e-08 -2.4926e-09)

surfaceFieldValue massFlowAtFilter_38 write:
    sum(fz_solid_38) of phi = 5.88744e-05

volFieldValue volFieldValue_39 write:
    volIntegrate(cz_solid_39) of U = (2.94315e-09 -1.07063e-08 -3.14469e-09)

surfaceFieldValue massFlowAtFilter_39 write:
    sum(fz_solid_39) of phi = 2.88213e-05

volFieldValue volFieldValue_40 write:
    volIntegrate(cz_solid_40) of U = (8.92952e-10 -8.64507e-09 -1.35146e-09)

surfaceFieldValue massFlowAtFilter_40 write:
    sum(fz_solid_40) of phi = 1.96591e-05

volFieldValue volFieldValue_41 write:
    volIntegrate(cz_solid_41) of U = (3.01224e-10 -7.87922e-09 -1.25803e-09)

surfaceFieldValue massFlowAtFilter_41 write:
    sum(fz_solid_41) of phi = 3.09713e-05

volFieldValue volFieldValue_42 write:
    volIntegrate(cz_solid_42) of U = (-1.50567e-10 -7.83438e-09 -1.07468e-09)

surfaceFieldValue massFlowAtFilter_42 write:
    sum(fz_solid_42) of phi = 3.52842e-06

volFieldValue volFieldValue_43 write:
    volIntegrate(cz_solid_43) of U = (-5.24815e-10 -7.42421e-09 -7.69514e-10)

surfaceFieldValue massFlowAtFilter_43 write:
    sum(fz_solid_43) of phi = 1.14563e-05

volFieldValue volFieldValue_44 write:
    volIntegrate(cz_solid_44) of U = (-8.53396e-10 -7.32505e-09 -4.54497e-10)

surfaceFieldValue massFlowAtFilter_44 write:
    sum(fz_solid_44) of phi = 2.15168e-06

volFieldValue volFieldValue_45 write:
    volIntegrate(cz_solid_45) of U = (-1.17289e-09 -7.14387e-09 -1.02438e-10)

surfaceFieldValue massFlowAtFilter_45 write:
    sum(fz_solid_45) of phi = 9.05681e-06

volFieldValue volFieldValue_46 write:
    volIntegrate(cz_solid_46) of U = (-1.4609e-09 -7.01895e-09 3.62039e-10)

surfaceFieldValue massFlowAtFilter_46 write:
    sum(fz_solid_46) of phi = 3.30108e-06

volFieldValue volFieldValue_47 write:
    volIntegrate(cz_solid_47) of U = (-1.58514e-09 -7.1552e-09 1.02469e-09)

surfaceFieldValue massFlowAtFilter_47 write:
    sum(fz_solid_47) of phi = 3.91731e-06

volFieldValue volFieldValue_48 write:
    volIntegrate(cz_solid_48) of U = (-1.49043e-09 -7.54745e-09 1.71487e-09)

surfaceFieldValue massFlowAtFilter_48 write:
    sum(fz_solid_48) of phi = -6.74777e-06

volFieldValue volFieldValue_49 write:
    volIntegrate(cz_solid_49) of U = (-1.06622e-09 -7.91219e-09 2.45384e-09)

surfaceFieldValue massFlowAtFilter_49 write:
    sum(fz_solid_49) of phi = 3.61775e-05

volFieldValue volFieldValue_50 write:
    volIntegrate(cz_solid_50) of U = (-1.9623e-10 -8.53871e-09 3.11373e-09)

surfaceFieldValue massFlowAtFilter_50 write:
    sum(fz_solid_50) of phi = 2.78461e-05

volFieldValue volFieldValue_51 write:
    volIntegrate(cz_solid_51) of U = (7.62547e-10 -9.45975e-09 3.45189e-09)

surfaceFieldValue massFlowAtFilter_51 write:
    sum(fz_solid_51) of phi = 1.11198e-05

volFieldValue volFieldValue_52 write:
    volIntegrate(cz_solid_52) of U = (2.02052e-09 -1.09631e-08 3.53908e-09)

surfaceFieldValue massFlowAtFilter_52 write:
    sum(fz_solid_52) of phi = 9.63957e-06

volFieldValue volFieldValue_53 write:
    volIntegrate(cz_solid_53) of U = (3.29939e-09 -1.28477e-08 3.29825e-09)

surfaceFieldValue massFlowAtFilter_53 write:
    sum(fz_solid_53) of phi = 4.63754e-05

volFieldValue volFieldValue_54 write:
    volIntegrate(cz_solid_54) of U = (4.54794e-09 -1.51892e-08 2.87408e-09)

surfaceFieldValue massFlowAtFilter_54 write:
    sum(fz_solid_54) of phi = -1.25605e-05

volFieldValue volFieldValue_55 write:
    volIntegrate(cz_solid_55) of U = (5.40247e-09 -1.75515e-08 2.14996e-09)

surfaceFieldValue massFlowAtFilter_55 write:
    sum(fz_solid_55) of phi = 2.64527e-05

volFieldValue volFieldValue_56 write:
    volIntegrate(cz_solid_56) of U = (5.10004e-09 -1.75509e-08 1.37122e-09)

surfaceFieldValue massFlowAtFilter_56 write:
    sum(fz_solid_56) of phi = 3.04166e-05

volFieldValue volFieldValue_57 write:
    volIntegrate(cz_solid_57) of U = (3.87028e-09 -1.42923e-08 4.00682e-10)

surfaceFieldValue massFlowAtFilter_57 write:
    sum(fz_solid_57) of phi = 4.26468e-05

volFieldValue volFieldValue_58 write:
    volIntegrate(cz_solid_58) of U = (2.64674e-09 -1.1602e-08 -6.95386e-10)

surfaceFieldValue massFlowAtFilter_58 write:
    sum(fz_solid_58) of phi = 4.73683e-05

volFieldValue volFieldValue_59 write:
    volIntegrate(cz_solid_59) of U = (1.68451e-09 -1.00978e-08 -1.23091e-09)

surfaceFieldValue massFlowAtFilter_59 write:
    sum(fz_solid_59) of phi = 4.72028e-05

volFieldValue volFieldValue_60 write:
    volIntegrate(cz_solid_60) of U = (1.06569e-11 -6.39039e-09 3.34397e-10)

surfaceFieldValue massFlowAtFilter_60 write:
    sum(fz_solid_60) of phi = -1.21637e-05

volFieldValue volFieldValue_61 write:
    volIntegrate(cz_solid_61) of U = (5.74307e-11 -5.62911e-09 7.27655e-11)

surfaceFieldValue massFlowAtFilter_61 write:
    sum(fz_solid_61) of phi = -6.69211e-06

volFieldValue volFieldValue_62 write:
    volIntegrate(cz_solid_62) of U = (-1.74295e-11 -5.4649e-09 -1.65725e-11)

surfaceFieldValue massFlowAtFilter_62 write:
    sum(fz_solid_62) of phi = -1.15486e-05

volFieldValue volFieldValue_63 write:
    volIntegrate(cz_solid_63) of U = (-1.60803e-10 -5.01655e-09 8.7526e-12)

surfaceFieldValue massFlowAtFilter_63 write:
    sum(fz_solid_63) of phi = -1.13959e-05

volFieldValue volFieldValue_64 write:
    volIntegrate(cz_solid_64) of U = (-3.56514e-10 -4.89215e-09 7.3567e-11)

surfaceFieldValue massFlowAtFilter_64 write:
    sum(fz_solid_64) of phi = -1.19217e-05

volFieldValue volFieldValue_65 write:
    volIntegrate(cz_solid_65) of U = (-5.78115e-10 -4.72917e-09 1.86835e-10)

surfaceFieldValue massFlowAtFilter_65 write:
    sum(fz_solid_65) of phi = -1.4755e-05

volFieldValue volFieldValue_66 write:
    volIntegrate(cz_solid_66) of U = (-7.95775e-10 -4.65478e-09 4.48366e-10)

surfaceFieldValue massFlowAtFilter_66 write:
    sum(fz_solid_66) of phi = -2.40818e-05

volFieldValue volFieldValue_67 write:
    volIntegrate(cz_solid_67) of U = (-8.83059e-10 -4.73913e-09 9.00395e-10)

surfaceFieldValue massFlowAtFilter_67 write:
    sum(fz_solid_67) of phi = -1.88623e-05

volFieldValue volFieldValue_68 write:
    volIntegrate(cz_solid_68) of U = (-8.08125e-10 -4.96799e-09 1.38472e-09)

surfaceFieldValue massFlowAtFilter_68 write:
    sum(fz_solid_68) of phi = -3.10595e-05

volFieldValue volFieldValue_69 write:
    volIntegrate(cz_solid_69) of U = (-4.62811e-10 -5.25798e-09 1.96565e-09)

surfaceFieldValue massFlowAtFilter_69 write:
    sum(fz_solid_69) of phi = 4.60261e-08

volFieldValue volFieldValue_70 write:
    volIntegrate(cz_solid_70) of U = (2.80005e-10 -5.76832e-09 2.53836e-09)

surfaceFieldValue massFlowAtFilter_70 write:
    sum(fz_solid_70) of phi = 5.31226e-06

volFieldValue volFieldValue_71 write:
    volIntegrate(cz_solid_71) of U = (1.14692e-09 -6.70853e-09 2.87988e-09)

surfaceFieldValue massFlowAtFilter_71 write:
    sum(fz_solid_71) of phi = -4.84687e-06

volFieldValue volFieldValue_72 write:
    volIntegrate(cz_solid_72) of U = (2.47114e-09 -8.33745e-09 3.03221e-09)

surfaceFieldValue massFlowAtFilter_72 write:
    sum(fz_solid_72) of phi = -1.85826e-05

volFieldValue volFieldValue_73 write:
    volIntegrate(cz_solid_73) of U = (4.09953e-09 -1.0826e-08 2.95212e-09)

surfaceFieldValue massFlowAtFilter_73 write:
    sum(fz_solid_73) of phi = 3.06283e-06

volFieldValue volFieldValue_74 write:
    volIntegrate(cz_solid_74) of U = (6.30665e-09 -1.50502e-08 2.69609e-09)

surfaceFieldValue massFlowAtFilter_74 write:
    sum(fz_solid_74) of phi = -7.40264e-05

volFieldValue volFieldValue_75 write:
    volIntegrate(cz_solid_75) of U = (8.90512e-09 -2.2442e-08 1.84221e-09)

surfaceFieldValue massFlowAtFilter_75 write:
    sum(fz_solid_75) of phi = -7.01878e-05

volFieldValue volFieldValue_76 write:
    volIntegrate(cz_solid_76) of U = (9.90178e-09 -3.3818e-08 1.3437e-09)

surfaceFieldValue massFlowAtFilter_76 write:
    sum(fz_solid_76) of phi = -0.000106699

volFieldValue volFieldValue_77 write:
    volIntegrate(cz_solid_77) of U = (3.90609e-09 -2.92639e-08 7.69142e-09)

surfaceFieldValue massFlowAtFilter_77 write:
    sum(fz_solid_77) of phi = -5.50373e-05

volFieldValue volFieldValue_78 write:
    volIntegrate(cz_solid_78) of U = (-2.315e-09 -1.07642e-08 1.43815e-09)

surfaceFieldValue massFlowAtFilter_78 write:
    sum(fz_solid_78) of phi = -4.24282e-05

volFieldValue volFieldValue_79 write:
    volIntegrate(cz_solid_79) of U = (-5.33377e-10 -7.33699e-09 6.95778e-10)

surfaceFieldValue massFlowAtFilter_79 write:
    sum(fz_solid_79) of phi = -1.42112e-05

volFieldValue volFieldValue_80 write:
    volIntegrate(cz_solid_80) of U = (-6.55631e-10 -3.09402e-09 1.28307e-09)

surfaceFieldValue massFlowAtFilter_80 write:
    sum(fz_solid_80) of phi = -5.65089e-06

volFieldValue volFieldValue_81 write:
    volIntegrate(cz_solid_81) of U = (-1.82938e-10 -2.59436e-09 8.14531e-10)

surfaceFieldValue massFlowAtFilter_81 write:
    sum(fz_solid_81) of phi = -2.24689e-06

volFieldValue volFieldValue_82 write:
    volIntegrate(cz_solid_82) of U = (-3.78277e-11 -2.35393e-09 5.37932e-10)

surfaceFieldValue massFlowAtFilter_82 write:
    sum(fz_solid_82) of phi = 3.81093e-06

volFieldValue volFieldValue_83 write:
    volIntegrate(cz_solid_83) of U = (-5.09754e-11 -2.07872e-09 3.98224e-10)

surfaceFieldValue massFlowAtFilter_83 write:
    sum(fz_solid_83) of phi = -8.506e-06

volFieldValue volFieldValue_84 write:
    volIntegrate(cz_solid_84) of U = (-1.83067e-10 -1.96461e-09 3.32868e-10)

surfaceFieldValue massFlowAtFilter_84 write:
    sum(fz_solid_84) of phi = 1.40818e-05

volFieldValue volFieldValue_85 write:
    volIntegrate(cz_solid_85) of U = (-3.40894e-10 -1.84582e-09 3.52634e-10)

surfaceFieldValue massFlowAtFilter_85 write:
    sum(fz_solid_85) of phi = -1.5567e-05

volFieldValue volFieldValue_86 write:
    volIntegrate(cz_solid_86) of U = (-5.01244e-10 -1.73771e-09 5.33762e-10)

surfaceFieldValue massFlowAtFilter_86 write:
    sum(fz_solid_86) of phi = -6.32644e-06

volFieldValue volFieldValue_87 write:
    volIntegrate(cz_solid_87) of U = (-5.50897e-10 -1.7802e-09 8.8832e-10)

surfaceFieldValue massFlowAtFilter_87 write:
    sum(fz_solid_87) of phi = -9.25301e-06

volFieldValue volFieldValue_88 write:
    volIntegrate(cz_solid_88) of U = (-4.64202e-10 -1.92134e-09 1.28366e-09)

surfaceFieldValue massFlowAtFilter_88 write:
    sum(fz_solid_88) of phi = -1.87676e-05

volFieldValue volFieldValue_89 write:
    volIntegrate(cz_solid_89) of U = (-1.32905e-10 -2.01358e-09 1.79272e-09)

surfaceFieldValue massFlowAtFilter_89 write:
    sum(fz_solid_89) of phi = -1.97946e-05

volFieldValue volFieldValue_90 write:
    volIntegrate(cz_solid_90) of U = (5.84974e-10 -2.26342e-09 2.34248e-09)

surfaceFieldValue massFlowAtFilter_90 write:
    sum(fz_solid_90) of phi = 1.83768e-05

volFieldValue volFieldValue_91 write:
    volIntegrate(cz_solid_91) of U = (1.51314e-09 -2.70708e-09 2.66454e-09)

surfaceFieldValue massFlowAtFilter_91 write:
    sum(fz_solid_91) of phi = 6.66557e-06

volFieldValue volFieldValue_92 write:
    volIntegrate(cz_solid_92) of U = (3.0445e-09 -3.52001e-09 2.70216e-09)

surfaceFieldValue massFlowAtFilter_92 write:
    sum(fz_solid_92) of phi = 4.80326e-05

volFieldValue volFieldValue_93 write:
    volIntegrate(cz_solid_93) of U = (5.05262e-09 -5.31456e-09 2.3757e-09)

surfaceFieldValue massFlowAtFilter_93 write:
    sum(fz_solid_93) of phi = 6.16245e-05

volFieldValue volFieldValue_94 write:
    volIntegrate(cz_solid_94) of U = (8.16588e-09 -7.97712e-09 1.86655e-09)

surfaceFieldValue massFlowAtFilter_94 write:
    sum(fz_solid_94) of phi = 0.000117786

volFieldValue volFieldValue_95 write:
[...]

surfaceFieldValue massFlowAtFilter_84 write:
    sum(fz_solid_84) of phi = -0.00704707

volFieldValue volFieldValue_85 write:
    volIntegrate(cz_solid_85) of U = (2.00321e-07 -1.52734e-06 -3.33207e-07)

surfaceFieldValue massFlowAtFilter_85 write:
    sum(fz_solid_85) of phi = 0.0192978

volFieldValue volFieldValue_86 write:
    volIntegrate(cz_solid_86) of U = (7.82384e-08 -1.65672e-06 -1.68648e-07)

surfaceFieldValue massFlowAtFilter_86 write:
    sum(fz_solid_86) of phi = -0.00634717

volFieldValue volFieldValue_87 write:
    volIntegrate(cz_solid_87) of U = (8.1956e-08 -1.81361e-06 -3.11114e-08)

surfaceFieldValue massFlowAtFilter_87 write:
    sum(fz_solid_87) of phi = 0.001399

volFieldValue volFieldValue_88 write:
    volIntegrate(cz_solid_88) of U = (2.26533e-07 -1.72278e-06 2.68244e-07)

surfaceFieldValue massFlowAtFilter_88 write:
    sum(fz_solid_88) of phi = -0.00693844

volFieldValue volFieldValue_89 write:
    volIntegrate(cz_solid_89) of U = (5.32127e-07 -1.57817e-06 6.72352e-07)

surfaceFieldValue massFlowAtFilter_89 write:
    sum(fz_solid_89) of phi = 0.0108235

volFieldValue volFieldValue_90 write:
    volIntegrate(cz_solid_90) of U = (1.05561e-06 -1.44741e-06 8.80378e-07)

surfaceFieldValue massFlowAtFilter_90 write:
    sum(fz_solid_90) of phi = 0.0219919

volFieldValue volFieldValue_91 write:
    volIntegrate(cz_solid_91) of U = (1.51052e-06 -1.30162e-06 6.83532e-07)

surfaceFieldValue massFlowAtFilter_91 write:
    sum(fz_solid_91) of phi = -0.00199526

volFieldValue volFieldValue_92 write:
    volIntegrate(cz_solid_92) of U = (1.61493e-06 -1.05357e-06 5.65682e-07)

surfaceFieldValue massFlowAtFilter_92 write:
    sum(fz_solid_92) of phi = -0.0133735

volFieldValue volFieldValue_93 write:
    volIntegrate(cz_solid_93) of U = (1.55289e-06 -9.56429e-07 2.52015e-07)

surfaceFieldValue massFlowAtFilter_93 write:
    sum(fz_solid_93) of phi = 0.0054502

volFieldValue volFieldValue_94 write:
    volIntegrate(cz_solid_94) of U = (1.41074e-06 -1.29112e-06 1.47821e-07)

surfaceFieldValue massFlowAtFilter_94 write:
    sum(fz_solid_94) of phi = 0.0139709

volFieldValue volFieldValue_95 write:
    volIntegrate(cz_solid_95) of U = (1.47677e-06 -1.37788e-06 2.9346e-08)

surfaceFieldValue massFlowAtFilter_95 write:
    sum(fz_solid_95) of phi = -0.0101627

volFieldValue volFieldValue_96 write:
    volIntegrate(cz_solid_96) of U = (1.79633e-06 -1.62869e-06 -2.56184e-07)

surfaceFieldValue massFlowAtFilter_96 write:
    sum(fz_solid_96) of phi = 0.00562408

volFieldValue volFieldValue_97 write:
    volIntegrate(cz_solid_97) of U = (2.0995e-06 -1.42454e-06 -9.26457e-07)

surfaceFieldValue massFlowAtFilter_97 write:
    sum(fz_solid_97) of phi = 0.00329219

volFieldValue volFieldValue_98 write:
    volIntegrate(cz_solid_98) of U = (2.35533e-06 -1.2798e-06 -1.5903e-06)

surfaceFieldValue massFlowAtFilter_98 write:
    sum(fz_solid_98) of phi = 0.0145727

volFieldValue volFieldValue_99 write:
    volIntegrate(cz_solid_99) of U = (2.57943e-06 -1.08101e-06 -1.70695e-06)

surfaceFieldValue massFlowAtFilter_99 write:
    sum(fz_solid_99) of phi = 0.0165509

Time = 1441

DILUPBiCG:  Solving for Ux, Initial residual = 0.00693931, Final residual = 3.48503e-06, No Iterations 6
DILUPBiCG:  Solving for Uy, Initial residual = 0.0218731, Final residual = 7.30829e-06, No Iterations 6
DILUPBiCG:  Solving for Uz, Initial residual = 0.00417988, Final residual = 9.77057e-06, No Iterations 4
DICPCG:  Solving for p, Initial residual = 0.0136849, Final residual = 0.00122873, No Iterations 46
DICPCG:  Solving for p, Initial residual = 0.00278155, Final residual = 0.000266563, No Iterations 368
DICPCG:  Solving for p, Initial residual = 0.00102734, Final residual = 0.000102016, No Iterations 18
time step continuity errors : sum local = 10.3547, global = 0.0171937, cumulative = -0.536505
DILUPBiCG:  Solving for epsilon, Initial residual = 0.0516979, Final residual = 6.76967e-07, No Iterations 4
bounding epsilon, min: -1.1253e+07 max: 7.75421e+12 average: 1.16553e+09
DILUPBiCG:  Solving for k, Initial residual = 0.033478, Final residual = 3.21739e-07, No Iterations 5
bounding k, min: -3.26743 max: 5.13024e+06 average: 2381.61
ExecutionTime = 4006.33 s  ClockTime = 4127 s

Time = 1442

DILUPBiCG:  Solving for Ux, Initial residual = 7.87395e-07, Final residual = 7.87395e-07, No Iterations 0
DILUPBiCG:  Solving for Uy, Initial residual = 1.70931e-05, Final residual = 6.787e-06, No Iterations 1
DILUPBiCG:  Solving for Uz, Initial residual = 4.92314e-07, Final residual = 4.92314e-07, No Iterations 0
DICPCG:  Solving for p, Initial residual = 0.0205599, Final residual = 0.00203017, No Iterations 23
DICPCG:  Solving for p, Initial residual = 0.00343144, Final residual = 0.000337161, No Iterations 50
DICPCG:  Solving for p, Initial residual = 0.00124965, Final residual = 0.00011685, No Iterations 383
time step continuity errors : sum local = 9.66531, global = 0.0207859, cumulative = -0.515719
DILUPBiCG:  Solving for epsilon, Initial residual = 3.69863e-07, Final residual = 3.69863e-07, No Iterations 0
DILUPBiCG:  Solving for k, Initial residual = 2.79571e-05, Final residual = 1.18034e-07, No Iterations 2
bounding k, min: -50.8492 max: 5.96766e+06 average: 2572.72
ExecutionTime = 4011.18 s  ClockTime = 4131 s

Time = 1443

DILUPBiCG:  Solving for Ux, Initial residual = 2.50072e-05, Final residual = 5.25399e-06, No Iterations 1
DILUPBiCG:  Solving for Uy, Initial residual = 2.23126e-05, Final residual = 9.14557e-06, No Iterations 1
DILUPBiCG:  Solving for Uz, Initial residual = 3.78515e-05, Final residual = 1.49531e-07, No Iterations 2
DICPCG:  Solving for p, Initial residual = 0.0198896, Final residual = 0.00190514, No Iterations 16
DICPCG:  Solving for p, Initial residual = 0.00387455, Final residual = 0.000385264, No Iterations 55
DICPCG:  Solving for p, Initial residual = 0.00612164, Final residual = 0.000541413, No Iterations 3
time step continuity errors : sum local = 47.0423, global = -10.0281, cumulative = -10.5438
DILUPBiCG:  Solving for epsilon, Initial residual = 6.54568e-07, Final residual = 6.54568e-07, No Iterations 0
DILUPBiCG:  Solving for k, Initial residual = 0.003787, Final residual = 6.33162e-09, No Iterations 3
bounding k, min: -6.29733 max: 1.04484e+07 average: 3040.32
ExecutionTime = 4012.96 s  ClockTime = 4133 s

Time = 1444

DILUPBiCG:  Solving for Ux, Initial residual = 0.0107522, Final residual = 6.163e-06, No Iterations 2
DILUPBiCG:  Solving for Uy, Initial residual = 0.0025003, Final residual = 6.16413e-06, No Iterations 2
DILUPBiCG:  Solving for Uz, Initial residual = 0.00878864, Final residual = 5.38256e-06, No Iterations 1
DICPCG:  Solving for p, Initial residual = 0.0162565, Final residual = 0.00155156, No Iterations 73
DICPCG:  Solving for p, Initial residual = 0.00725922, Final residual = 0.0007012, No Iterations 7
DICPCG:  Solving for p, Initial residual = 0.00555831, Final residual = 0.000555291, No Iterations 6
time step continuity errors : sum local = 26796, global = -25.4361, cumulative = -35.9799
DILUPBiCG:  Solving for epsilon, Initial residual = 1.71408e-07, Final residual = 1.71408e-07, No Iterations 0
DILUPBiCG:  Solving for k, Initial residual = 0.4519, Final residual = 1.09137e-07, No Iterations 5
ExecutionTime = 4014.87 s  ClockTime = 4135 s

Time = 1445

DILUPBiCG:  Solving for Ux, Initial residual = 0.72012, Final residual = 4.83093e-06, No Iterations 5
DILUPBiCG:  Solving for Uy, Initial residual = 0.846548, Final residual = 1.25486e-06, No Iterations 6
DILUPBiCG:  Solving for Uz, Initial residual = 0.711144, Final residual = 7.68843e-06, No Iterations 5
DICPCG:  Solving for p, Initial residual = 0.0293481, Final residual = 0.00288637, No Iterations 29
DICPCG:  Solving for p, Initial residual = 1.16355e-13, Final residual = 1.16355e-13, No Iterations 0
DICPCG:  Solving for p, Initial residual = 1.16355e-13, Final residual = 1.16355e-13, No Iterations 0
time step continuity errors : sum local = 5.49286e+10, global = -71.7796, cumulative = -107.76
DILUPBiCG:  Solving for epsilon, Initial residual = 6.85758e-08, Final residual = 6.85758e-08, No Iterations 0
DILUPBiCG:  Solving for k, Initial residual = 0.706345, Final residual = 1.12808e-07, No Iterations 5
ExecutionTime = 4016.6 s  ClockTime = 4137 s

Time = 1446

DILUPBiCG:  Solving for Ux, Initial residual = 0.608523, Final residual = 1.47573e-16, No Iterations 1
DILUPBiCG:  Solving for Uy, Initial residual = 0.983846, Final residual = 1.85962e-16, No Iterations 1
DILUPBiCG:  Solving for Uz, Initial residual = 0.77612, Final residual = 7.01063e-17, No Iterations 1
DICPCG:  Solving for p, Initial residual = 7.49263e-18, Final residual = 7.49263e-18, No Iterations 0
DICPCG:  Solving for p, Initial residual = 7.49263e-18, Final residual = 7.49263e-18, No Iterations 0
DICPCG:  Solving for p, Initial residual = 7.49263e-18, Final residual = 7.49263e-18, No Iterations 0
time step continuity errors : sum local = 1.0114e+06, global = -46.8485, cumulative = -154.608
DILUPBiCG:  Solving for epsilon, Initial residual = 1.36109e-12, Final residual = 1.36109e-12, No Iterations 0
DILUPBiCG:  Solving for k, Initial residual = 0.33245, Final residual = 6.68879e-17, No Iterations 1
bounding k, min: -1.11294e+08 max: 5.88468e+14 average: 5.91084e+10
ExecutionTime = 4017.66 s  ClockTime = 4138 s

Time = 1447

DILUPBiCG:  Solving for Ux, Initial residual = 0.240982, Final residual = 4.98555e-17, No Iterations 1
DILUPBiCG:  Solving for Uy, Initial residual = 0.938355, Final residual = 2.07164e-16, No Iterations 1
DILUPBiCG:  Solving for Uz, Initial residual = 0.362441, Final residual = 3.30093e-17, No Iterations 1
DICPCG:  Solving for p, Initial residual = 8.44135e-18, Final residual = 8.44135e-18, No Iterations 0
DICPCG:  Solving for p, Initial residual = 8.44135e-18, Final residual = 8.44135e-18, No Iterations 0
DICPCG:  Solving for p, Initial residual = 8.44135e-18, Final residual = 8.44135e-18, No Iterations 0
time step continuity errors : sum local = 1.09346e+06, global = -80.1552, cumulative = -234.763
DILUPBiCG:  Solving for epsilon, Initial residual = 5.51685e-14, Final residual = 5.51685e-14, No Iterations 0
DILUPBiCG:  Solving for k, Initial residual = 0.21821, Final residual = 2.20468e-17, No Iterations 1
bounding k, min: -1.23503e+09 max: 5.33336e+14 average: 1.04918e+11
ExecutionTime = 4018.7 s  ClockTime = 4139 s

Time = 1448

DILUPBiCG:  Solving for Ux, Initial residual = 0.11012, Final residual = 2.40749e-17, No Iterations 1
DILUPBiCG:  Solving for Uy, Initial residual = 0.474407, Final residual = 1.10474e-16, No Iterations 1
DILUPBiCG:  Solving for Uz, Initial residual = 0.176745, Final residual = 5.51454e-17, No Iterations 1
DICPCG:  Solving for p, Initial residual = 1.00477e-17, Final residual = 1.00477e-17, No Iterations 0
DICPCG:  Solving for p, Initial residual = 1.00477e-17, Final residual = 1.00477e-17, No Iterations 0
DICPCG:  Solving for p, Initial residual = 1.00477e-17, Final residual = 1.00477e-17, No Iterations 0
time step continuity errors : sum local = 1.2213e+06, global = -111.802, cumulative = -346.566
DILUPBiCG:  Solving for epsilon, Initial residual = 1.41173e-14, Final residual = 1.41173e-14, No Iterations 0
DILUPBiCG:  Solving for k, Initial residual = 0.0842457, Final residual = 2.09343e-17, No Iterations 1
bounding k, min: -7.79293e+07 max: 5.08206e+14 average: 1.54024e+11
ExecutionTime = 4019.77 s  ClockTime = 4140 s

Time = 1449

DILUPBiCG:  Solving for Ux, Initial residual = 0.0474548, Final residual = 3.55846e-17, No Iterations 1
DILUPBiCG:  Solving for Uy, Initial residual = 0.266113, Final residual = 9.17198e-17, No Iterations 1
DILUPBiCG:  Solving for Uz, Initial residual = 0.0687343, Final residual = 3.99779e-17, No Iterations 1
DICPCG:  Solving for p, Initial residual = 1.21951e-17, Final residual = 1.21951e-17, No Iterations 0
DICPCG:  Solving for p, Initial residual = 1.21951e-17, Final residual = 1.21951e-17, No Iterations 0
DICPCG:  Solving for p, Initial residual = 1.21951e-17, Final residual = 1.21951e-17, No Iterations 0
time step continuity errors : sum local = 1.38388e+06, global = -128.881, cumulative = -475.447
DILUPBiCG:  Solving for epsilon, Initial residual = 5.99087e-15, Final residual = 5.99087e-15, No Iterations 0
DILUPBiCG:  Solving for k, Initial residual = 0.0300662, Final residual = 2.65024e-17, No Iterations 1
bounding k, min: -4.31951e+07 max: 4.98748e+14 average: 2.03402e+11
ExecutionTime = 4020.85 s  ClockTime = 4141 s

Time = 1450

DILUPBiCG:  Solving for Ux, Initial residual = 0.0204336, Final residual = 2.20762e-17, No Iterations 1
DILUPBiCG:  Solving for Uy, Initial residual = 0.0929529, Final residual = 8.04418e-17, No Iterations 1
DILUPBiCG:  Solving for Uz, Initial residual = 0.0305586, Final residual = 3.31171e-17, No Iterations 1
DICPCG:  Solving for p, Initial residual = 1.46053e-17, Final residual = 1.46053e-17, No Iterations 0
DICPCG:  Solving for p, Initial residual = 1.46053e-17, Final residual = 1.46053e-17, No Iterations 0
DICPCG:  Solving for p, Initial residual = 1.46053e-17, Final residual = 1.46053e-17, No Iterations 0
time step continuity errors : sum local = 1.52922e+06, global = -162.43, cumulative = -637.877
DILUPBiCG:  Solving for epsilon, Initial residual = 2.6773e-15, Final residual = 2.6773e-15, No Iterations 0
DILUPBiCG:  Solving for k, Initial residual = 0.0105141, Final residual = 3.31754e-17, No Iterations 1
bounding k, min: -90440.8 max: 4.95931e+14 average: 2.52274e+11
ExecutionTime = 4021.92 s  ClockTime = 4142 s

Time = 1451

DILUPBiCG:  Solving for Ux, Initial residual = 0.00982482, Final residual = 4.40508e-17, No Iterations 1
DILUPBiCG:  Solving for Uy, Initial residual = 0.0404523, Final residual = 4.63886e-17, No Iterations 1
DILUPBiCG:  Solving for Uz, Initial residual = 0.0118784, Final residual = 4.30858e-17, No Iterations 1
DICPCG:  Solving for p, Initial residual = 1.85612e-17, Final residual = 1.85612e-17, No Iterations 0
DICPCG:  Solving for p, Initial residual = 1.85612e-17, Final residual = 1.85612e-17, No Iterations 0
DICPCG:  Solving for p, Initial residual = 1.85612e-17, Final residual = 1.85612e-17, No Iterations 0
time step continuity errors : sum local = 1.69542e+06, global = -215.447, cumulative = -853.323
DILUPBiCG:  Solving for epsilon, Initial residual = 1.2108e-15, Final residual = 1.2108e-15, No Iterations 0
DILUPBiCG:  Solving for k, Initial residual = 0.00376667, Final residual = 6.88396e-17, No Iterations 1
bounding k, min: -43317 max: 4.94342e+14 average: 3.00589e+11
ExecutionTime = 4022.97 s  ClockTime = 4143 s

Time = 1452

DILUPBiCG:  Solving for Ux, Initial residual = 0.00380535, Final residual = 8.0437e-17, No Iterations 1
DILUPBiCG:  Solving for Uy, Initial residual = 0.0156721, Final residual = 4.33439e-17, No Iterations 1
DILUPBiCG:  Solving for Uz, Initial residual = 0.0056869, Final residual = 4.71934e-17, No Iterations 1
DICPCG:  Solving for p, Initial residual = 2.39365e-17, Final residual = 2.39365e-17, No Iterations 0
DICPCG:  Solving for p, Initial residual = 2.39365e-17, Final residual = 2.39365e-17, No Iterations 0
DICPCG:  Solving for p, Initial residual = 2.39365e-17, Final residual = 2.39365e-17, No Iterations 0
time step continuity errors : sum local = 1.87492e+06, global = 47.8792, cumulative = -805.444
DILUPBiCG:  Solving for epsilon, Initial residual = 5.91729e-16, Final residual = 5.91729e-16, No Iterations 0
DILUPBiCG:  Solving for k, Initial residual = 0.00144228, Final residual = 1.47352e-16, No Iterations 1
bounding k, min: -81659.4 max: 4.9384e+14 average: 3.48456e+11
ExecutionTime = 4024.01 s  ClockTime = 4144 s

Time = 1453

DILUPBiCG:  Solving for Ux, Initial residual = 0.00228373, Final residual = 1.26766e-16, No Iterations 1
DILUPBiCG:  Solving for Uy, Initial residual = 0.00706808, Final residual = 6.18904e-17, No Iterations 1
DILUPBiCG:  Solving for Uz, Initial residual = 0.00176267, Final residual = 9.99397e-17, No Iterations 1
DICPCG:  Solving for p, Initial residual = 3.04969e-17, Final residual = 3.04969e-17, No Iterations 0
DICPCG:  Solving for p, Initial residual = 3.04969e-17, Final residual = 3.04969e-17, No Iterations 0
DICPCG:  Solving for p, Initial residual = 3.04969e-17, Final residual = 3.04969e-17, No Iterations 0
time step continuity errors : sum local = 2.06239e+06, global = -580.922, cumulative = -1386.37
DILUPBiCG:  Solving for epsilon, Initial residual = 3.21084e-16, Final residual = 3.21084e-16, No Iterations 0
DILUPBiCG:  Solving for k, Initial residual = 0.00056991, Final residual = 3.14483e-16, No Iterations 1
bounding k, min: -439243 max: 4.93688e+14 average: 3.95991e+11
ExecutionTime = 4025.08 s  ClockTime = 4145 s

Time = 1454

DILUPBiCG:  Solving for Ux, Initial residual = 0.000654353, Final residual = 2.74697e-16, No Iterations 1
DILUPBiCG:  Solving for Uy, Initial residual = 0.0023246, Final residual = 1.44653e-16, No Iterations 1
DILUPBiCG:  Solving for Uz, Initial residual = 0.00136298, Final residual = 1.00786e-16, No Iterations 1
DICPCG:  Solving for p, Initial residual = 3.99258e-17, Final residual = 3.99258e-17, No Iterations 0
DICPCG:  Solving for p, Initial residual = 3.99258e-17, Final residual = 3.99258e-17, No Iterations 0
DICPCG:  Solving for p, Initial residual = 3.99258e-17, Final residual = 3.99258e-17, No Iterations 0
time step continuity errors : sum local = 2.25801e+06, global = -951.672, cumulative = -2338.04
DILUPBiCG:  Solving for epsilon, Initial residual = 1.93123e-16, Final residual = 1.93123e-16, No Iterations 0
DILUPBiCG:  Solving for k, Initial residual = 0.000225272, Final residual = 6.87123e-16, No Iterations 1
bounding k, min: -5.91821 max: 4.93623e+14 average: 4.43254e+11
ExecutionTime = 4026.13 s  ClockTime = 4146 s

Time = 1455

DILUPBiCG:  Solving for Ux, Initial residual = 0.000912198, Final residual = 2.78243e-16, No Iterations 1
DILUPBiCG:  Solving for Uy, Initial residual = 0.00186213, Final residual = 1.75798e-16, No Iterations 1
DILUPBiCG:  Solving for Uz, Initial residual = 6.87968e-05, Final residual = 1.11893e-15, No Iterations 1
DICPCG:  Solving for p, Initial residual = 5.29042e-17, Final residual = 5.29042e-17, No Iterations 0
DICPCG:  Solving for p, Initial residual = 5.29042e-17, Final residual = 5.29042e-17, No Iterations 0
DICPCG:  Solving for p, Initial residual = 5.29042e-17, Final residual = 5.29042e-17, No Iterations 0
time step continuity errors : sum local = 2.45666e+06, global = -2018.73, cumulative = -4356.77
DILUPBiCG:  Solving for epsilon, Initial residual = 1.27777e-16, Final residual = 1.27777e-16, No Iterations 0
DILUPBiCG:  Solving for k, Initial residual = 0.000107571, Final residual = 1.4665e-15, No Iterations 1
bounding k, min: -26.839 max: 4.93589e+14 average: 4.90271e+11
ExecutionTime = 4027.2 s  ClockTime = 4147 s

Time = 1456

DILUPBiCG:  Solving for Ux, Initial residual = 0.000640205, Final residual = 3.90124e-16, No Iterations 1
DILUPBiCG:  Solving for Uy, Initial residual = 0.000388078, Final residual = 9.56149e-16, No Iterations 1
DILUPBiCG:  Solving for Uz, Initial residual = 0.000592971, Final residual = 1.46512e-16, No Iterations 1
DICPCG:  Solving for p, Initial residual = 7.46617e-17, Final residual = 7.46617e-17, No Iterations 0
DICPCG:  Solving for p, Initial residual = 7.46617e-17, Final residual = 7.46617e-17, No Iterations 0
DICPCG:  Solving for p, Initial residual = 7.46617e-17, Final residual = 7.46617e-17, No Iterations 0
time step continuity errors : sum local = 2.65851e+06, global = -2756.27, cumulative = -7113.04
DILUPBiCG:  Solving for epsilon, Initial residual = 9.24159e-17, Final residual = 9.24159e-17, No Iterations 0
DILUPBiCG:  Solving for k, Initial residual = 6.88454e-05, Final residual = 1.49024e-15, No Iterations 1
bounding k, min: -2.03172e+06 max: 4.93568e+14 average: 5.37047e+11
ExecutionTime = 4028.25 s  ClockTime = 4148 s


SIMPLE solution converged in 1456 iterations

End

Finalising parallel run
