/*---------------------------------------------------------------------------*\
  =========                 |
  \\      /  F ield         | OpenFOAM: The Open Source CFD Toolbox
   \\    /   O peration     | Website:  https://openfoam.org
    \\  /    A nd           | Version:  6
     \\/     M anipulation  |
\*---------------------------------------------------------------------------*/
Build  : 6
Exec   : bouSimpleFoam -parallel
Date   : Aug 07 2020
Time   : 17:22:18
Host   : "emps-ugcs2"
PID    : 18936
I/O    : uncollated
Case   : /home/links/jjw230/upload/Case9
nProcs : 4
Slaves : 
3
(
"emps-ugcs2.18937"
"emps-ugcs2.18938"
"emps-ugcs2.18939"
)

Pstream initialized with:
    floatTransfer      : 0
    nProcsSimpleSum    : 0
    commsType          : nonBlocking
    polling iterations : 0
sigFpe : Enabling floating point exception trapping (FOAM_SIGFPE).
fileModificationChecking : Monitoring run-time modified files using timeStampMaster (fileModificationSkew 10)
allowSystemOperations : Allowing user-supplied system call operations

// * * * * * * * * * * * * * * * * * * * * * * * * * * * * * * * * * * * * * //
Create time

Create mesh for time = 0


SIMPLE: Convergence criteria found
        p: tolerance 0.001
        U: tolerance 0.001
        "(k|epsilon)": tolerance 0.001
        theta: tolerance 0.001

Reading field p

Reading field U

Reading field theta

Reading/calculating face flux field phi

Selecting incompressible transport model Newtonian
Selecting turbulence model type RAS
Selecting RAS turbulence model RNGkEpsilon
RAS
{
    RASModel        RNGkEpsilon;
    turbulence      on;
    printCoeffs     on;
    Cmu             0.0845;
    C1              1.42;
    C2              1.68;
    C3              0;
    sigmak          0.71942;
    sigmaEps        0.71942;
    eta0            4.38;
    beta            0.012;
}

No MRF models present

Creating finite volume options from "system/fvOptions"

Selecting finite volume options model type explicitPorositySource
    Source: source0
    - selecting cells using cellZone cz_solid_0
    - selected 2072 cell(s) with volume 0.00214219
Porosity region source0:
    selecting model: DarcyForchheimer
    creating porous zone: cz_solid_0
Selecting finite volume options model type explicitPorositySource
    Source: source1
    - selecting cells using cellZone cz_solid_1
    - selected 2082 cell(s) with volume 0.00214478
Porosity region source1:
    selecting model: DarcyForchheimer
    creating porous zone: cz_solid_1
Selecting finite volume options model type explicitPorositySource
    Source: source2
    - selecting cells using cellZone cz_solid_2
    - selected 2030 cell(s) with volume 0.00214182
Porosity region source2:
    selecting model: DarcyForchheimer
    creating porous zone: cz_solid_2
Selecting finite volume options model type explicitPorositySource
    Source: source3
    - selecting cells using cellZone cz_solid_3
    - selected 1925 cell(s) with volume 0.00214374
Porosity region source3:
    selecting model: DarcyForchheimer
    creating porous zone: cz_solid_3
Selecting finite volume options model type explicitPorositySource
    Source: source4
    - selecting cells using cellZone cz_solid_4
    - selected 1344 cell(s) with volume 0.00213915
Porosity region source4:
    selecting model: DarcyForchheimer
    creating porous zone: cz_solid_4
Selecting finite volume options model type explicitPorositySource
    Source: source5
    - selecting cells using cellZone cz_solid_5
    - selected 2044 cell(s) with volume 0.00214213
Porosity region source5:
    selecting model: DarcyForchheimer
    creating porous zone: cz_solid_5
Selecting finite volume options model type explicitPorositySource
    Source: source6
    - selecting cells using cellZone cz_solid_6
    - selected 1960 cell(s) with volume 0.00214343
Porosity region source6:
    selecting model: DarcyForchheimer
    creating porous zone: cz_solid_6
Selecting finite volume options model type explicitPorositySource
    Source: source7
    - selecting cells using cellZone cz_solid_7
    - selected 2027 cell(s) with volume 0.00214435
Porosity region source7:
    selecting model: DarcyForchheimer
    creating porous zone: cz_solid_7
Selecting finite volume options model type explicitPorositySource
    Source: source8
    - selecting cells using cellZone cz_solid_8
    - selected 1456 cell(s) with volume 0.00213929
Porosity region source8:
    selecting model: DarcyForchheimer
    creating porous zone: cz_solid_8
Selecting finite volume options model type explicitPorositySource
    Source: source9
    - selecting cells using cellZone cz_solid_9
    - selected 2016 cell(s) with volume 0.00214421
Porosity region source9:
    selecting model: DarcyForchheimer
    creating porous zone: cz_solid_9
Selecting finite volume options model type explicitPorositySource
    Source: source10
    - selecting cells using cellZone cz_solid_10
    - selected 2017 cell(s) with volume 0.00214456
Porosity region source10:
    selecting model: DarcyForchheimer
    creating porous zone: cz_solid_10
Selecting finite volume options model type explicitPorositySource
    Source: source11
    - selecting cells using cellZone cz_solid_11
    - selected 2072 cell(s) with volume 0.00214148
Porosity region source11:
    selecting model: DarcyForchheimer
    creating porous zone: cz_solid_11
Selecting finite volume options model type explicitPorositySource
    Source: source12
    - selecting cells using cellZone cz_solid_12
    - selected 2149 cell(s) with volume 0.00214455
Porosity region source12:
    selecting model: DarcyForchheimer
    creating porous zone: cz_solid_12
Selecting finite volume options model type explicitPorositySource
    Source: source13
    - selecting cells using cellZone cz_solid_13
    - selected 1797 cell(s) with volume 0.00214272
Porosity region source13:
    selecting model: DarcyForchheimer
    creating porous zone: cz_solid_13
Selecting finite volume options model type explicitPorositySource
    Source: source14
    - selecting cells using cellZone cz_solid_14
    - selected 1915 cell(s) with volume 0.0021454
Porosity region source14:
    selecting model: DarcyForchheimer
    creating porous zone: cz_solid_14
Selecting finite volume options model type explicitPorositySource
    Source: source15
    - selecting cells using cellZone cz_solid_15
    - selected 1938 cell(s) with volume 0.00214263
Porosity region source15:
    selecting model: DarcyForchheimer
    creating porous zone: cz_solid_15
Selecting finite volume options model type explicitPorositySource
    Source: source16
    - selecting cells using cellZone cz_solid_16
    - selected 1789 cell(s) with volume 0.00214189
Porosity region source16:
    selecting model: DarcyForchheimer
    creating porous zone: cz_solid_16
Selecting finite volume options model type explicitPorositySource
    Source: source17
    - selecting cells using cellZone cz_solid_17
    - selected 1906 cell(s) with volume 0.00213781
Porosity region source17:
    selecting model: DarcyForchheimer
    creating porous zone: cz_solid_17
Selecting finite volume options model type explicitPorositySource
    Source: source18
    - selecting cells using cellZone cz_solid_18
    - selected 1915 cell(s) with volume 0.00214532
Porosity region source18:
    selecting model: DarcyForchheimer
    creating porous zone: cz_solid_18
Selecting finite volume options model type explicitPorositySource
    Source: source19
    - selecting cells using cellZone cz_solid_19
    - selected 1918 cell(s) with volume 0.00214434
Porosity region source19:
    selecting model: DarcyForchheimer
    creating porous zone: cz_solid_19
Selecting finite volume options model type explicitPorositySource
    Source: source20
    - selecting cells using cellZone cz_solid_20
    - selected 2192 cell(s) with volume 0.00214222
Porosity region source20:
    selecting model: DarcyForchheimer
    creating porous zone: cz_solid_20
Selecting finite volume options model type explicitPorositySource
    Source: source21
    - selecting cells using cellZone cz_solid_21
    - selected 2192 cell(s) with volume 0.00214387
Porosity region source21:
    selecting model: DarcyForchheimer
    creating porous zone: cz_solid_21
Selecting finite volume options model type explicitPorositySource
    Source: source22
    - selecting cells using cellZone cz_solid_22
    - selected 2150 cell(s) with volume 0.00214204
Porosity region source22:
    selecting model: DarcyForchheimer
    creating porous zone: cz_solid_22
Selecting finite volume options model type explicitPorositySource
    Source: source23
    - selecting cells using cellZone cz_solid_23
    - selected 2044 cell(s) with volume 0.00214383
Porosity region source23:
    selecting model: DarcyForchheimer
    creating porous zone: cz_solid_23
Selecting finite volume options model type explicitPorositySource
    Source: source24
    - selecting cells using cellZone cz_solid_24
    - selected 1436 cell(s) with volume 0.00213934
Porosity region source24:
    selecting model: DarcyForchheimer
    creating porous zone: cz_solid_24
Selecting finite volume options model type explicitPorositySource
    Source: source25
    - selecting cells using cellZone cz_solid_25
    - selected 2136 cell(s) with volume 0.00214237
Porosity region source25:
    selecting model: DarcyForchheimer
    creating porous zone: cz_solid_25
Selecting finite volume options model type explicitPorositySource
    Source: source26
    - selecting cells using cellZone cz_solid_26
    - selected 2080 cell(s) with volume 0.00214354
Porosity region source26:
    selecting model: DarcyForchheimer
    creating porous zone: cz_solid_26
Selecting finite volume options model type explicitPorositySource
    Source: source27
    - selecting cells using cellZone cz_solid_27
    - selected 2122 cell(s) with volume 0.00214401
Porosity region source27:
    selecting model: DarcyForchheimer
    creating porous zone: cz_solid_27
Selecting finite volume options model type explicitPorositySource
    Source: source28
    - selecting cells using cellZone cz_solid_28
    - selected 1548 cell(s) with volume 0.00213984
Porosity region source28:
    selecting model: DarcyForchheimer
    creating porous zone: cz_solid_28
Selecting finite volume options model type explicitPorositySource
    Source: source29
    - selecting cells using cellZone cz_solid_29
    - selected 2080 cell(s) with volume 0.00214403
Porosity region source29:
    selecting model: DarcyForchheimer
    creating porous zone: cz_solid_29
Selecting finite volume options model type explicitPorositySource
    Source: source30
    - selecting cells using cellZone cz_solid_30
    - selected 2114 cell(s) with volume 0.00214494
Porosity region source30:
    selecting model: DarcyForchheimer
    creating porous zone: cz_solid_30
Selecting finite volume options model type explicitPorositySource
    Source: source31
    - selecting cells using cellZone cz_solid_31
    - selected 2192 cell(s) with volume 0.00214166
Porosity region source31:
    selecting model: DarcyForchheimer
    creating porous zone: cz_solid_31
Selecting finite volume options model type explicitPorositySource
    Source: source32
    - selecting cells using cellZone cz_solid_32
    - selected 2268 cell(s) with volume 0.00214493
Porosity region source32:
    selecting model: DarcyForchheimer
    creating porous zone: cz_solid_32
Selecting finite volume options model type explicitPorositySource
    Source: source33
    - selecting cells using cellZone cz_solid_33
    - selected 1858 cell(s) with volume 0.00214278
Porosity region source33:
    selecting model: DarcyForchheimer
    creating porous zone: cz_solid_33
Selecting finite volume options model type explicitPorositySource
    Source: source34
    - selecting cells using cellZone cz_solid_34
    - selected 1994 cell(s) with volume 0.00214507
Porosity region source34:
    selecting model: DarcyForchheimer
    creating porous zone: cz_solid_34
Selecting finite volume options model type explicitPorositySource
    Source: source35
    - selecting cells using cellZone cz_solid_35
    - selected 2080 cell(s) with volume 0.0021433
Porosity region source35:
    selecting model: DarcyForchheimer
    creating porous zone: cz_solid_35
Selecting finite volume options model type explicitPorositySource
    Source: source36
    - selecting cells using cellZone cz_solid_36
    - selected 1858 cell(s) with volume 0.00214239
Porosity region source36:
    selecting model: DarcyForchheimer
    creating porous zone: cz_solid_36
Selecting finite volume options model type explicitPorositySource
    Source: source37
    - selecting cells using cellZone cz_solid_37
    - selected 2022 cell(s) with volume 0.00213926
Porosity region source37:
    selecting model: DarcyForchheimer
    creating porous zone: cz_solid_37
Selecting finite volume options model type explicitPorositySource
    Source: source38
    - selecting cells using cellZone cz_solid_38
    - selected 1978 cell(s) with volume 0.00214512
Porosity region source38:
    selecting model: DarcyForchheimer
    creating porous zone: cz_solid_38
Selecting finite volume options model type explicitPorositySource
    Source: source39
    - selecting cells using cellZone cz_solid_39
    - selected 2010 cell(s) with volume 0.00214491
Porosity region source39:
    selecting model: DarcyForchheimer
    creating porous zone: cz_solid_39
Selecting finite volume options model type explicitPorositySource
    Source: source40
    - selecting cells using cellZone cz_solid_40
    - selected 2072 cell(s) with volume 0.00214203
Porosity region source40:
    selecting model: DarcyForchheimer
    creating porous zone: cz_solid_40
Selecting finite volume options model type explicitPorositySource
    Source: source41
    - selecting cells using cellZone cz_solid_41
    - selected 2100 cell(s) with volume 0.00214378
Porosity region source41:
    selecting model: DarcyForchheimer
    creating porous zone: cz_solid_41
Selecting finite volume options model type explicitPorositySource
    Source: source42
    - selecting cells using cellZone cz_solid_42
    - selected 2030 cell(s) with volume 0.00214187
Porosity region source42:
    selecting model: DarcyForchheimer
    creating porous zone: cz_solid_42
Selecting finite volume options model type explicitPorositySource
    Source: source43
    - selecting cells using cellZone cz_solid_43
    - selected 1925 cell(s) with volume 0.00214369
Porosity region source43:
    selecting model: DarcyForchheimer
    creating porous zone: cz_solid_43
Selecting finite volume options model type explicitPorositySource
    Source: source44
    - selecting cells using cellZone cz_solid_44
    - selected 1344 cell(s) with volume 0.00213908
Porosity region source44:
    selecting model: DarcyForchheimer
    creating porous zone: cz_solid_44
Selecting finite volume options model type explicitPorositySource
    Source: source45
    - selecting cells using cellZone cz_solid_45
    - selected 2044 cell(s) with volume 0.00214222
Porosity region source45:
    selecting model: DarcyForchheimer
    creating porous zone: cz_solid_45
Selecting finite volume options model type explicitPorositySource
    Source: source46
    - selecting cells using cellZone cz_solid_46
    - selected 1960 cell(s) with volume 0.0021436
Porosity region source46:
    selecting model: DarcyForchheimer
    creating porous zone: cz_solid_46
Selecting finite volume options model type explicitPorositySource
    Source: source47
    - selecting cells using cellZone cz_solid_47
    - selected 2030 cell(s) with volume 0.00214386
Porosity region source47:
    selecting model: DarcyForchheimer
    creating porous zone: cz_solid_47
Selecting finite volume options model type explicitPorositySource
    Source: source48
    - selecting cells using cellZone cz_solid_48
    - selected 1456 cell(s) with volume 0.00213951
Porosity region source48:
    selecting model: DarcyForchheimer
    creating porous zone: cz_solid_48
Selecting finite volume options model type explicitPorositySource
    Source: source49
    - selecting cells using cellZone cz_solid_49
    - selected 1960 cell(s) with volume 0.00214366
Porosity region source49:
    selecting model: DarcyForchheimer
    creating porous zone: cz_solid_49
Selecting finite volume options model type explicitPorositySource
    Source: source50
    - selecting cells using cellZone cz_solid_50
    - selected 1993 cell(s) with volume 0.00214493
Porosity region source50:
    selecting model: DarcyForchheimer
    creating porous zone: cz_solid_50
Selecting finite volume options model type explicitPorositySource
    Source: source51
    - selecting cells using cellZone cz_solid_51
    - selected 2072 cell(s) with volume 0.00214138
Porosity region source51:
    selecting model: DarcyForchheimer
    creating porous zone: cz_solid_51
Selecting finite volume options model type explicitPorositySource
    Source: source52
    - selecting cells using cellZone cz_solid_52
    - selected 2149 cell(s) with volume 0.00214479
Porosity region source52:
    selecting model: DarcyForchheimer
    creating porous zone: cz_solid_52
Selecting finite volume options model type explicitPorositySource
    Source: source53
    - selecting cells using cellZone cz_solid_53
    - selected 1801 cell(s) with volume 0.00214252
Porosity region source53:
    selecting model: DarcyForchheimer
    creating porous zone: cz_solid_53
Selecting finite volume options model type explicitPorositySource
    Source: source54
    - selecting cells using cellZone cz_solid_54
    - selected 1894 cell(s) with volume 0.00214485
Porosity region source54:
    selecting model: DarcyForchheimer
    creating porous zone: cz_solid_54
Selecting finite volume options model type explicitPorositySource
    Source: source55
    - selecting cells using cellZone cz_solid_55
    - selected 1938 cell(s) with volume 0.00214276
Porosity region source55:
    selecting model: DarcyForchheimer
    creating porous zone: cz_solid_55
Selecting finite volume options model type explicitPorositySource
    Source: source56
    - selecting cells using cellZone cz_solid_56
    - selected 1793 cell(s) with volume 0.00214228
Porosity region source56:
    selecting model: DarcyForchheimer
    creating porous zone: cz_solid_56
Selecting finite volume options model type explicitPorositySource
    Source: source57
    - selecting cells using cellZone cz_solid_57
    - selected 1896 cell(s) with volume 0.00213812
Porosity region source57:
    selecting model: DarcyForchheimer
    creating porous zone: cz_solid_57
Selecting finite volume options model type explicitPorositySource
    Source: source58
    - selecting cells using cellZone cz_solid_58
    - selected 1894 cell(s) with volume 0.00214472
Porosity region source58:
    selecting model: DarcyForchheimer
    creating porous zone: cz_solid_58
Selecting finite volume options model type explicitPorositySource
    Source: source59
    - selecting cells using cellZone cz_solid_59
    - selected 1918 cell(s) with volume 0.00214464
Porosity region source59:
    selecting model: DarcyForchheimer
    creating porous zone: cz_solid_59
Selecting finite volume options model type explicitPorositySource
    Source: source60
    - selecting cells using cellZone cz_solid_60
    - selected 2100 cell(s) with volume 0.00214191
Porosity region source60:
    selecting model: DarcyForchheimer
    creating porous zone: cz_solid_60
Selecting finite volume options model type explicitPorositySource
    Source: source61
    - selecting cells using cellZone cz_solid_61
    - selected 2100 cell(s) with volume 0.00214367
Porosity region source61:
    selecting model: DarcyForchheimer
    creating porous zone: cz_solid_61
Selecting finite volume options model type explicitPorositySource
    Source: source62
    - selecting cells using cellZone cz_solid_62
    - selected 2058 cell(s) with volume 0.0021416
Porosity region source62:
    selecting model: DarcyForchheimer
    creating porous zone: cz_solid_62
Selecting finite volume options model type explicitPorositySource
    Source: source63
    - selecting cells using cellZone cz_solid_63
    - selected 1946 cell(s) with volume 0.00214339
Porosity region source63:
    selecting model: DarcyForchheimer
    creating porous zone: cz_solid_63
Selecting finite volume options model type explicitPorositySource
    Source: source64
    - selecting cells using cellZone cz_solid_64
    - selected 1322 cell(s) with volume 0.00213893
Porosity region source64:
    selecting model: DarcyForchheimer
    creating porous zone: cz_solid_64
Selecting finite volume options model type explicitPorositySource
    Source: source65
    - selecting cells using cellZone cz_solid_65
    - selected 2044 cell(s) with volume 0.00214203
Porosity region source65:
    selecting model: DarcyForchheimer
    creating porous zone: cz_solid_65
Selecting finite volume options model type explicitPorositySource
    Source: source66
    - selecting cells using cellZone cz_solid_66
    - selected 1988 cell(s) with volume 0.00214333
Porosity region source66:
    selecting model: DarcyForchheimer
    creating porous zone: cz_solid_66
Selecting finite volume options model type explicitPorositySource
    Source: source67
    - selecting cells using cellZone cz_solid_67
    - selected 2037 cell(s) with volume 0.00214356
Porosity region source67:
    selecting model: DarcyForchheimer
    creating porous zone: cz_solid_67
Selecting finite volume options model type explicitPorositySource
    Source: source68
    - selecting cells using cellZone cz_solid_68
    - selected 1434 cell(s) with volume 0.00213925
Porosity region source68:
    selecting model: DarcyForchheimer
    creating porous zone: cz_solid_68
Selecting finite volume options model type explicitPorositySource
    Source: source69
    - selecting cells using cellZone cz_solid_69
    - selected 2016 cell(s) with volume 0.00214367
Porosity region source69:
    selecting model: DarcyForchheimer
    creating porous zone: cz_solid_69
Selecting finite volume options model type explicitPorositySource
    Source: source70
    - selecting cells using cellZone cz_solid_70
    - selected 2028 cell(s) with volume 0.00214494
Porosity region source70:
    selecting model: DarcyForchheimer
    creating porous zone: cz_solid_70
Selecting finite volume options model type explicitPorositySource
    Source: source71
    - selecting cells using cellZone cz_solid_71
    - selected 2093 cell(s) with volume 0.00214119
Porosity region source71:
    selecting model: DarcyForchheimer
    creating porous zone: cz_solid_71
Selecting finite volume options model type explicitPorositySource
    Source: source72
    - selecting cells using cellZone cz_solid_72
    - selected 2170 cell(s) with volume 0.00214467
Porosity region source72:
    selecting model: DarcyForchheimer
    creating porous zone: cz_solid_72
Selecting finite volume options model type explicitPorositySource
    Source: source73
    - selecting cells using cellZone cz_solid_73
    - selected 1781 cell(s) with volume 0.00214208
Porosity region source73:
    selecting model: DarcyForchheimer
    creating porous zone: cz_solid_73
Selecting finite volume options model type explicitPorositySource
    Source: source74
    - selecting cells using cellZone cz_solid_74
    - selected 1907 cell(s) with volume 0.00214476
Porosity region source74:
    selecting model: DarcyForchheimer
    creating porous zone: cz_solid_74
Selecting finite volume options model type explicitPorositySource
    Source: source75
    - selecting cells using cellZone cz_solid_75
    - selected 1988 cell(s) with volume 0.00214302
Porosity region source75:
    selecting model: DarcyForchheimer
    creating porous zone: cz_solid_75
Selecting finite volume options model type explicitPorositySource
    Source: source76
    - selecting cells using cellZone cz_solid_76
    - selected 1781 cell(s) with volume 0.00214205
Porosity region source76:
    selecting model: DarcyForchheimer
    creating porous zone: cz_solid_76
Selecting finite volume options model type explicitPorositySource
    Source: source77
    - selecting cells using cellZone cz_solid_77
    - selected 1872 cell(s) with volume 0.00213799
Porosity region source77:
    selecting model: DarcyForchheimer
    creating porous zone: cz_solid_77
Selecting finite volume options model type explicitPorositySource
    Source: source78
    - selecting cells using cellZone cz_solid_78
    - selected 1900 cell(s) with volume 0.00214459
Porosity region source78:
    selecting model: DarcyForchheimer
    creating porous zone: cz_solid_78
Selecting finite volume options model type explicitPorositySource
    Source: source79
    - selecting cells using cellZone cz_solid_79
    - selected 1925 cell(s) with volume 0.00214438
Porosity region source79:
    selecting model: DarcyForchheimer
    creating porous zone: cz_solid_79
Selecting finite volume options model type explicitPorositySource
    Source: source80
    - selecting cells using cellZone cz_solid_80
    - selected 2123 cell(s) with volume 0.00214165
Porosity region source80:
    selecting model: DarcyForchheimer
    creating porous zone: cz_solid_80
Selecting finite volume options model type explicitPorositySource
    Source: source81
    - selecting cells using cellZone cz_solid_81
    - selected 2123 cell(s) with volume 0.00214361
Porosity region source81:
    selecting model: DarcyForchheimer
    creating porous zone: cz_solid_81
Selecting finite volume options model type explicitPorositySource
    Source: source82
    - selecting cells using cellZone cz_solid_82
    - selected 2084 cell(s) with volume 0.00214156
Porosity region source82:
    selecting model: DarcyForchheimer
    creating porous zone: cz_solid_82
Selecting finite volume options model type explicitPorositySource
    Source: source83
    - selecting cells using cellZone cz_solid_83
    - selected 1976 cell(s) with volume 0.00214326
Porosity region source83:
    selecting model: DarcyForchheimer
    creating porous zone: cz_solid_83
Selecting finite volume options model type explicitPorositySource
    Source: source84
    - selecting cells using cellZone cz_solid_84
    - selected 1400 cell(s) with volume 0.00213957
Porosity region source84:
    selecting model: DarcyForchheimer
    creating porous zone: cz_solid_84
Selecting finite volume options model type explicitPorositySource
    Source: source85
    - selecting cells using cellZone cz_solid_85
    - selected 2036 cell(s) with volume 0.0021419
Porosity region source85:
    selecting model: DarcyForchheimer
    creating porous zone: cz_solid_85
Selecting finite volume options model type explicitPorositySource
    Source: source86
    - selecting cells using cellZone cz_solid_86
    - selected 2025 cell(s) with volume 0.00214281
Porosity region source86:
    selecting model: DarcyForchheimer
    creating porous zone: cz_solid_86
Selecting finite volume options model type explicitPorositySource
    Source: source87
    - selecting cells using cellZone cz_solid_87
    - selected 2069 cell(s) with volume 0.00214351
Porosity region source87:
    selecting model: DarcyForchheimer
    creating porous zone: cz_solid_87
Selecting finite volume options model type explicitPorositySource
    Source: source88
    - selecting cells using cellZone cz_solid_88
    - selected 1505 cell(s) with volume 0.00214001
Porosity region source88:
    selecting model: DarcyForchheimer
    creating porous zone: cz_solid_88
Selecting finite volume options model type explicitPorositySource
    Source: source89
    - selecting cells using cellZone cz_solid_89
    - selected 2053 cell(s) with volume 0.00214311
Porosity region source89:
    selecting model: DarcyForchheimer
    creating porous zone: cz_solid_89
Selecting finite volume options model type explicitPorositySource
    Source: source90
    - selecting cells using cellZone cz_solid_90
    - selected 2054 cell(s) with volume 0.00214454
Porosity region source90:
    selecting model: DarcyForchheimer
    creating porous zone: cz_solid_90
Selecting finite volume options model type explicitPorositySource
    Source: source91
    - selecting cells using cellZone cz_solid_91
    - selected 2116 cell(s) with volume 0.00214101
Porosity region source91:
    selecting model: DarcyForchheimer
    creating porous zone: cz_solid_91
Selecting finite volume options model type explicitPorositySource
    Source: source92
    - selecting cells using cellZone cz_solid_92
    - selected 2186 cell(s) with volume 0.00214429
Porosity region source92:
    selecting model: DarcyForchheimer
    creating porous zone: cz_solid_92
Selecting finite volume options model type explicitPorositySource
    Source: source93
    - selecting cells using cellZone cz_solid_93
    - selected 1800 cell(s) with volume 0.00214242
Porosity region source93:
    selecting model: DarcyForchheimer
    creating porous zone: cz_solid_93
Selecting finite volume options model type explicitPorositySource
    Source: source94
    - selecting cells using cellZone cz_solid_94
    - selected 1916 cell(s) with volume 0.00214488
Porosity region source94:
    selecting model: DarcyForchheimer
    creating porous zone: cz_solid_94
Selecting finite volume options model type explicitPorositySource
    Source: source95
    - selecting cells using cellZone cz_solid_95
    - selected 2014 cell(s) with volume 0.00214278
Porosity region source95:
    selecting model: DarcyForchheimer
    creating porous zone: cz_solid_95
Selecting finite volume options model type explicitPorositySource
    Source: source96
    - selecting cells using cellZone cz_solid_96
    - selected 1800 cell(s) with volume 0.00214183
Porosity region source96:
    selecting model: DarcyForchheimer
    creating porous zone: cz_solid_96
Selecting finite volume options model type explicitPorositySource
    Source: source97
    - selecting cells using cellZone cz_solid_97
    - selected 1902 cell(s) with volume 0.00213734
Porosity region source97:
    selecting model: DarcyForchheimer
    creating porous zone: cz_solid_97
Selecting finite volume options model type explicitPorositySource
    Source: source98
    - selecting cells using cellZone cz_solid_98
    - selected 1930 cell(s) with volume 0.00214451
Porosity region source98:
    selecting model: DarcyForchheimer
    creating porous zone: cz_solid_98
Selecting finite volume options model type explicitPorositySource
    Source: source99
    - selecting cells using cellZone cz_solid_99
    - selected 1937 cell(s) with volume 0.00214445
Porosity region source99:
    selecting model: DarcyForchheimer
    creating porous zone: cz_solid_99

Starting time loop

forces porousforces:
--> FOAM Warning : 
    From function Foam::labelHashSet Foam::polyBoundaryMesh::patchSet(const Foam::UList<Foam::wordRe>&, bool, bool) const
    in file meshes/polyMesh/polyBoundaryMesh/polyBoundaryMesh.C at line 798
    Cannot find any patch or group names matching solid_to_fluid
    Including porosity effects


surfaceFieldValue massFlowAtFilter_0:
    total faces  = 1654
    total area   = 0.10167




surfaceFieldValue massFlowAtFilter_1:
    total faces  = 1722
    total area   = 0.101652




surfaceFieldValue massFlowAtFilter_2:
    total faces  = 1616
    total area   = 0.101678




surfaceFieldValue massFlowAtFilter_3:
    total faces  = 1674
    total area   = 0.101748




surfaceFieldValue massFlowAtFilter_4:
    total faces  = 1414
    total area   = 0.101633




surfaceFieldValue massFlowAtFilter_5:
    total faces  = 1618
    total area   = 0.101692




surfaceFieldValue massFlowAtFilter_6:
    total faces  = 1676
    total area   = 0.101741




surfaceFieldValue massFlowAtFilter_7:
    total faces  = 1641
    total area   = 0.101663




surfaceFieldValue massFlowAtFilter_8:
    total faces  = 1414
    total area   = 0.101649




surfaceFieldValue massFlowAtFilter_9:
    total faces  = 1700
    total area   = 0.101771




surfaceFieldValue massFlowAtFilter_10:
    total faces  = 1732
    total area   = 0.101663




surfaceFieldValue massFlowAtFilter_11:
    total faces  = 1724
    total area   = 0.10163




surfaceFieldValue massFlowAtFilter_12:
    total faces  = 1722
    total area   = 0.101674




surfaceFieldValue massFlowAtFilter_13:
    total faces  = 1610
    total area   = 0.101716




surfaceFieldValue massFlowAtFilter_14:
    total faces  = 1729
    total area   = 0.101701




surfaceFieldValue massFlowAtFilter_15:
    total faces  = 1648
    total area   = 0.101659




surfaceFieldValue massFlowAtFilter_16:
    total faces  = 1604
    total area   = 0.101698




surfaceFieldValue massFlowAtFilter_17:
    total faces  = 1552
    total area   = 0.10166




surfaceFieldValue massFlowAtFilter_18:
    total faces  = 1725
    total area   = 0.101712




surfaceFieldValue massFlowAtFilter_19:
    total faces  = 1646
    total area   = 0.101725




surfaceFieldValue massFlowAtFilter_20:
    total faces  = 1696
    total area   = 0.10165




surfaceFieldValue massFlowAtFilter_21:
    total faces  = 1768
    total area   = 0.101624




surfaceFieldValue massFlowAtFilter_22:
    total faces  = 1658
    total area   = 0.101645




surfaceFieldValue massFlowAtFilter_23:
    total faces  = 1718
    total area   = 0.101655




surfaceFieldValue massFlowAtFilter_24:
    total faces  = 1460
    total area   = 0.101585




surfaceFieldValue massFlowAtFilter_25:
    total faces  = 1660
    total area   = 0.101655




surfaceFieldValue massFlowAtFilter_26:
    total faces  = 1720
    total area   = 0.101693




surfaceFieldValue massFlowAtFilter_27:
    total faces  = 1680
    total area   = 0.101624




surfaceFieldValue massFlowAtFilter_28:
    total faces  = 1460
    total area   = 0.101599




surfaceFieldValue massFlowAtFilter_29:
    total faces  = 1720
    total area   = 0.101707




surfaceFieldValue massFlowAtFilter_30:
    total faces  = 1784
    total area   = 0.101633




surfaceFieldValue massFlowAtFilter_31:
    total faces  = 1768
    total area   = 0.101641




surfaceFieldValue massFlowAtFilter_32:
    total faces  = 1766
    total area   = 0.101615




surfaceFieldValue massFlowAtFilter_33:
    total faces  = 1636
    total area   = 0.101691




surfaceFieldValue massFlowAtFilter_34:
    total faces  = 1782
    total area   = 0.10163




surfaceFieldValue massFlowAtFilter_35:
    total faces  = 1698
    total area   = 0.101616




surfaceFieldValue massFlowAtFilter_36:
    total faces  = 1636
    total area   = 0.101699




surfaceFieldValue massFlowAtFilter_37:
    total faces  = 1600
    total area   = 0.101618




surfaceFieldValue massFlowAtFilter_38:
    total faces  = 1778
    total area   = 0.10167




surfaceFieldValue massFlowAtFilter_39:
    total faces  = 1690
    total area   = 0.101663




surfaceFieldValue massFlowAtFilter_40:
    total faces  = 1654
    total area   = 0.101695




surfaceFieldValue massFlowAtFilter_41:
    total faces  = 1724
    total area   = 0.101678




surfaceFieldValue massFlowAtFilter_42:
    total faces  = 1616
    total area   = 0.101693




surfaceFieldValue massFlowAtFilter_43:
    total faces  = 1674
    total area   = 0.101779




surfaceFieldValue massFlowAtFilter_44:
    total faces  = 1414
    total area   = 0.101639




surfaceFieldValue massFlowAtFilter_45:
    total faces  = 1618
    total area   = 0.101698




surfaceFieldValue massFlowAtFilter_46:
    total faces  = 1676
    total area   = 0.101785




surfaceFieldValue massFlowAtFilter_47:
    total faces  = 1636
    total area   = 0.101694




surfaceFieldValue massFlowAtFilter_48:
    total faces  = 1414
    total area   = 0.101658




surfaceFieldValue massFlowAtFilter_49:
    total faces  = 1676
    total area   = 0.101771




surfaceFieldValue massFlowAtFilter_50:
    total faces  = 1740
    total area   = 0.101712




surfaceFieldValue massFlowAtFilter_51:
    total faces  = 1724
    total area   = 0.101701




surfaceFieldValue massFlowAtFilter_52:
    total faces  = 1722
    total area   = 0.101705




surfaceFieldValue massFlowAtFilter_53:
    total faces  = 1610
    total area   = 0.101754




surfaceFieldValue massFlowAtFilter_54:
    total faces  = 1736
    total area   = 0.10172




surfaceFieldValue massFlowAtFilter_55:
    total faces  = 1648
    total area   = 0.101694




surfaceFieldValue massFlowAtFilter_56:
    total faces  = 1604
    total area   = 0.101736




surfaceFieldValue massFlowAtFilter_57:
    total faces  = 1536
    total area   = 0.101678




surfaceFieldValue massFlowAtFilter_58:
    total faces  = 1732
    total area   = 0.101754




surfaceFieldValue massFlowAtFilter_59:
    total faces  = 1646
    total area   = 0.101734




surfaceFieldValue massFlowAtFilter_60:
    total faces  = 1654
    total area   = 0.1017




surfaceFieldValue massFlowAtFilter_61:
    total faces  = 1724
    total area   = 0.101692




surfaceFieldValue massFlowAtFilter_62:
    total faces  = 1616
    total area   = 0.101698




surfaceFieldValue massFlowAtFilter_63:
    total faces  = 1674
    total area   = 0.101788




surfaceFieldValue massFlowAtFilter_64:
    total faces  = 1400
    total area   = 0.101638




surfaceFieldValue massFlowAtFilter_65:
    total faces  = 1618
    total area   = 0.101708




surfaceFieldValue massFlowAtFilter_66:
    total faces  = 1676
    total area   = 0.101777




surfaceFieldValue massFlowAtFilter_67:
    total faces  = 1639
    total area   = 0.101713




surfaceFieldValue massFlowAtFilter_68:
    total faces  = 1400
    total area   = 0.101647




surfaceFieldValue massFlowAtFilter_69:
    total faces  = 1688
    total area   = 0.101793




surfaceFieldValue massFlowAtFilter_70:
    total faces  = 1736
    total area   = 0.101726




surfaceFieldValue massFlowAtFilter_71:
    total faces  = 1724
    total area   = 0.1017




surfaceFieldValue massFlowAtFilter_72:
    total faces  = 1722
    total area   = 0.101712




surfaceFieldValue massFlowAtFilter_73:
    total faces  = 1595
    total area   = 0.101765




surfaceFieldValue massFlowAtFilter_74:
    total faces  = 1734
    total area   = 0.101708




surfaceFieldValue massFlowAtFilter_75:
    total faces  = 1654
    total area   = 0.101721




surfaceFieldValue massFlowAtFilter_76:
    total faces  = 1595
    total area   = 0.101754




surfaceFieldValue massFlowAtFilter_77:
    total faces  = 1526
    total area   = 0.101676




surfaceFieldValue massFlowAtFilter_78:
    total faces  = 1730
    total area   = 0.101778




surfaceFieldValue massFlowAtFilter_79:
    total faces  = 1646
    total area   = 0.101742




surfaceFieldValue massFlowAtFilter_80:
    total faces  = 1661
    total area   = 0.101697




surfaceFieldValue massFlowAtFilter_81:
    total faces  = 1731
    total area   = 0.101657




surfaceFieldValue massFlowAtFilter_82:
    total faces  = 1626
    total area   = 0.101693




surfaceFieldValue massFlowAtFilter_83:
    total faces  = 1684
    total area   = 0.101721




surfaceFieldValue massFlowAtFilter_84:
    total faces  = 1446
    total area   = 0.101618




surfaceFieldValue massFlowAtFilter_85:
    total faces  = 1624
    total area   = 0.101701




surfaceFieldValue massFlowAtFilter_86:
    total faces  = 1686
    total area   = 0.101684




surfaceFieldValue massFlowAtFilter_87:
    total faces  = 1651
    total area   = 0.101701




surfaceFieldValue massFlowAtFilter_88:
    total faces  = 1446
    total area   = 0.101636




surfaceFieldValue massFlowAtFilter_89:
    total faces  = 1698
    total area   = 0.101707




surfaceFieldValue massFlowAtFilter_90:
    total faces  = 1742
    total area   = 0.101698




surfaceFieldValue massFlowAtFilter_91:
    total faces  = 1731
    total area   = 0.101644




surfaceFieldValue massFlowAtFilter_92:
    total faces  = 1729
    total area   = 0.101679




surfaceFieldValue massFlowAtFilter_93:
    total faces  = 1610
    total area   = 0.10173




surfaceFieldValue massFlowAtFilter_94:
    total faces  = 1741
    total area   = 0.101714




surfaceFieldValue massFlowAtFilter_95:
    total faces  = 1669
    total area   = 0.101687




surfaceFieldValue massFlowAtFilter_96:
    total faces  = 1610
    total area   = 0.101715




surfaceFieldValue massFlowAtFilter_97:
    total faces  = 1529
    total area   = 0.101665




surfaceFieldValue massFlowAtFilter_98:
    total faces  = 1737
    total area   = 0.101777




surfaceFieldValue massFlowAtFilter_99:
    total faces  = 1658
    total area   = 0.101724


Time = 1

DILUPBiCG:  Solving for Ux, Initial residual = 1, Final residual = 4.67439e-06, No Iterations 5
DILUPBiCG:  Solving for Uy, Initial residual = 1, Final residual = 3.23707e-06, No Iterations 7
DILUPBiCG:  Solving for Uz, Initial residual = 1, Final residual = 2.98263e-06, No Iterations 6
DICPCG:  Solving for p, Initial residual = 1, Final residual = 0.0950747, No Iterations 314
DICPCG:  Solving for p, Initial residual = 0.00366882, Final residual = 0.000266308, No Iterations 4
DICPCG:  Solving for p, Initial residual = 0.000518201, Final residual = 5.08362e-05, No Iterations 33
time step continuity errors : sum local = 0.0389704, global = -0.000246372, cumulative = -0.000246372
DILUPBiCG:  Solving for epsilon, Initial residual = 0.048655, Final residual = 1.39563e-06, No Iterations 4
DILUPBiCG:  Solving for k, Initial residual = 1, Final residual = 8.86535e-07, No Iterations 6
ExecutionTime = 5.61 s  ClockTime = 6 s

Time = 2

DILUPBiCG:  Solving for Ux, Initial residual = 8.83345e-05, Final residual = 2.37463e-06, No Iterations 2
DILUPBiCG:  Solving for Uy, Initial residual = 3.90274e-05, Final residual = 7.40625e-06, No Iterations 1
DILUPBiCG:  Solving for Uz, Initial residual = 8.21046e-05, Final residual = 1.64729e-06, No Iterations 2
DICPCG:  Solving for p, Initial residual = 0.0130059, Final residual = 0.00127878, No Iterations 112
DICPCG:  Solving for p, Initial residual = 0.00576781, Final residual = 0.000569638, No Iterations 258
DICPCG:  Solving for p, Initial residual = 0.00456147, Final residual = 0.000450791, No Iterations 15
time step continuity errors : sum local = 0.0463464, global = -0.000143799, cumulative = -0.000390171
DILUPBiCG:  Solving for epsilon, Initial residual = 0.0139307, Final residual = 8.17867e-07, No Iterations 4
DILUPBiCG:  Solving for k, Initial residual = 0.517891, Final residual = 3.80559e-08, No Iterations 7
ExecutionTime = 9.37 s  ClockTime = 10 s

Time = 3

DILUPBiCG:  Solving for Ux, Initial residual = 1.31391e-05, Final residual = 2.28214e-06, No Iterations 1
DILUPBiCG:  Solving for Uy, Initial residual = 8.14049e-06, Final residual = 8.14049e-06, No Iterations 0
DILUPBiCG:  Solving for Uz, Initial residual = 2.00689e-05, Final residual = 6.16836e-06, No Iterations 1
DICPCG:  Solving for p, Initial residual = 0.018245, Final residual = 0.00179418, No Iterations 295
DICPCG:  Solving for p, Initial residual = 0.0257518, Final residual = 0.00256165, No Iterations 4
DICPCG:  Solving for p, Initial residual = 0.00397953, Final residual = 0.000394769, No Iterations 46
time step continuity errors : sum local = 0.0356856, global = -0.000227729, cumulative = -0.0006179
DILUPBiCG:  Solving for epsilon, Initial residual = 0.017432, Final residual = 1.224e-06, No Iterations 4
DILUPBiCG:  Solving for k, Initial residual = 0.251629, Final residual = 2.2991e-07, No Iterations 6
ExecutionTime = 12.75 s  ClockTime = 13 s

Time = 4

DILUPBiCG:  Solving for Ux, Initial residual = 3.76022e-06, Final residual = 3.76022e-06, No Iterations 0
DILUPBiCG:  Solving for Uy, Initial residual = 3.65899e-06, Final residual = 3.65899e-06, No Iterations 0
DILUPBiCG:  Solving for Uz, Initial residual = 4.73721e-06, Final residual = 4.73721e-06, No Iterations 0
DICPCG:  Solving for p, Initial residual = 0.0198537, Final residual = 0.00194801, No Iterations 301
DICPCG:  Solving for p, Initial residual = 0.0103679, Final residual = 0.000924983, No Iterations 4
DICPCG:  Solving for p, Initial residual = 0.00150117, Final residual = 0.000142869, No Iterations 48
time step continuity errors : sum local = 0.0233587, global = -1.83986e-05, cumulative = -0.000636299
DILUPBiCG:  Solving for epsilon, Initial residual = 0.0179469, Final residual = 6.71965e-06, No Iterations 3
DILUPBiCG:  Solving for k, Initial residual = 0.156713, Final residual = 8.03754e-07, No Iterations 5
ExecutionTime = 16.13 s  ClockTime = 16 s

Time = 5

DILUPBiCG:  Solving for Ux, Initial residual = 9.81152e-06, Final residual = 9.81152e-06, No Iterations 0
DILUPBiCG:  Solving for Uy, Initial residual = 1.45054e-06, Final residual = 1.45054e-06, No Iterations 0
DILUPBiCG:  Solving for Uz, Initial residual = 9.14292e-06, Final residual = 9.14292e-06, No Iterations 0
DICPCG:  Solving for p, Initial residual = 0.114063, Final residual = 0.0109227, No Iterations 293
DICPCG:  Solving for p, Initial residual = 0.00497271, Final residual = 0.000489673, No Iterations 6
DICPCG:  Solving for p, Initial residual = 0.000763289, Final residual = 7.45735e-05, No Iterations 60
time step continuity errors : sum local = 0.0123492, global = 0.000220953, cumulative = -0.000415346
DILUPBiCG:  Solving for epsilon, Initial residual = 0.0167098, Final residual = 5.38601e-06, No Iterations 3
DILUPBiCG:  Solving for k, Initial residual = 0.113625, Final residual = 5.09771e-07, No Iterations 5
ExecutionTime = 19.55 s  ClockTime = 20 s

Time = 6

DILUPBiCG:  Solving for Ux, Initial residual = 1.53903e-05, Final residual = 3.0773e-06, No Iterations 1
DILUPBiCG:  Solving for Uy, Initial residual = 2.85106e-06, Final residual = 2.85106e-06, No Iterations 0
DILUPBiCG:  Solving for Uz, Initial residual = 1.48485e-05, Final residual = 4.38426e-06, No Iterations 1
DICPCG:  Solving for p, Initial residual = 0.0713194, Final residual = 0.00697452, No Iterations 70
DICPCG:  Solving for p, Initial residual = 0.031446, Final residual = 0.00302631, No Iterations 30
DICPCG:  Solving for p, Initial residual = 0.00710278, Final residual = 0.000709336, No Iterations 261
time step continuity errors : sum local = 0.0341874, global = -5.62071e-05, cumulative = -0.000471553
DILUPBiCG:  Solving for epsilon, Initial residual = 0.014543, Final residual = 4.73106e-06, No Iterations 3
DILUPBiCG:  Solving for k, Initial residual = 0.091006, Final residual = 4.71547e-07, No Iterations 5
ExecutionTime = 23.04 s  ClockTime = 23 s

Time = 7

DILUPBiCG:  Solving for Ux, Initial residual = 1.52416e-05, Final residual = 4.17826e-06, No Iterations 1
DILUPBiCG:  Solving for Uy, Initial residual = 3.72993e-06, Final residual = 3.72993e-06, No Iterations 0
DILUPBiCG:  Solving for Uz, Initial residual = 8.11175e-06, Final residual = 8.11175e-06, No Iterations 0
DICPCG:  Solving for p, Initial residual = 0.0385971, Final residual = 0.00385336, No Iterations 78
DICPCG:  Solving for p, Initial residual = 0.0202938, Final residual = 0.00198645, No Iterations 20
DICPCG:  Solving for p, Initial residual = 0.00384276, Final residual = 0.000357209, No Iterations 262
time step continuity errors : sum local = 0.0237862, global = 9.94232e-05, cumulative = -0.00037213
DILUPBiCG:  Solving for epsilon, Initial residual = 0.0125306, Final residual = 3.93389e-06, No Iterations 3
DILUPBiCG:  Solving for k, Initial residual = 0.0758344, Final residual = 9.38946e-07, No Iterations 5
ExecutionTime = 26.48 s  ClockTime = 27 s

Time = 8

DILUPBiCG:  Solving for Ux, Initial residual = 2.1648e-05, Final residual = 4.42165e-06, No Iterations 1
DILUPBiCG:  Solving for Uy, Initial residual = 3.49689e-06, Final residual = 3.49689e-06, No Iterations 0
DILUPBiCG:  Solving for Uz, Initial residual = 9.20752e-06, Final residual = 9.20752e-06, No Iterations 0
DICPCG:  Solving for p, Initial residual = 0.0275706, Final residual = 0.00266237, No Iterations 114
DICPCG:  Solving for p, Initial residual = 0.0108116, Final residual = 0.00108029, No Iterations 255
DICPCG:  Solving for p, Initial residual = 0.0119556, Final residual = 0.00119, No Iterations 25
time step continuity errors : sum local = 0.0265647, global = 0.000381615, cumulative = 9.48504e-06
DILUPBiCG:  Solving for epsilon, Initial residual = 0.0116041, Final residual = 4.50801e-06, No Iterations 3
DILUPBiCG:  Solving for k, Initial residual = 0.0654909, Final residual = 2.79917e-08, No Iterations 6
ExecutionTime = 30.18 s  ClockTime = 30 s

Time = 9

DILUPBiCG:  Solving for Ux, Initial residual = 9.88603e-06, Final residual = 9.88603e-06, No Iterations 0
DILUPBiCG:  Solving for Uy, Initial residual = 2.46038e-06, Final residual = 2.46038e-06, No Iterations 0
DILUPBiCG:  Solving for Uz, Initial residual = 1.23297e-05, Final residual = 3.32008e-06, No Iterations 1
DICPCG:  Solving for p, Initial residual = 0.0559945, Final residual = 0.00557242, No Iterations 109
DICPCG:  Solving for p, Initial residual = 0.0216138, Final residual = 0.00213067, No Iterations 250
DICPCG:  Solving for p, Initial residual = 0.00626606, Final residual = 0.000612799, No Iterations 19
time step continuity errors : sum local = 0.0330767, global = 0.000711233, cumulative = 0.000720718
DILUPBiCG:  Solving for epsilon, Initial residual = 0.0111987, Final residual = 5.82969e-07, No Iterations 4
DILUPBiCG:  Solving for k, Initial residual = 0.0582288, Final residual = 2.87364e-08, No Iterations 6
ExecutionTime = 33.78 s  ClockTime = 34 s

Time = 10

DILUPBiCG:  Solving for Ux, Initial residual = 6.37191e-06, Final residual = 6.37191e-06, No Iterations 0
DILUPBiCG:  Solving for Uy, Initial residual = 1.11455e-06, Final residual = 1.11455e-06, No Iterations 0
DILUPBiCG:  Solving for Uz, Initial residual = 4.39981e-06, Final residual = 4.39981e-06, No Iterations 0
DICPCG:  Solving for p, Initial residual = 0.142512, Final residual = 0.0142452, No Iterations 75
DICPCG:  Solving for p, Initial residual = 0.0566335, Final residual = 0.00564775, No Iterations 232
DICPCG:  Solving for p, Initial residual = 0.0038186, Final residual = 0.000381839, No Iterations 26
time step continuity errors : sum local = 0.0242414, global = 5.82114e-05, cumulative = 0.000778929
DILUPBiCG:  Solving for epsilon, Initial residual = 0.0105343, Final residual = 6.18447e-07, No Iterations 4
DILUPBiCG:  Solving for k, Initial residual = 0.052751, Final residual = 7.1392e-07, No Iterations 5
ExecutionTime = 37.02 s  ClockTime = 37 s

Time = 11

DILUPBiCG:  Solving for Ux, Initial residual = 4.23637e-06, Final residual = 4.23637e-06, No Iterations 0
DILUPBiCG:  Solving for Uy, Initial residual = 1.18345e-06, Final residual = 1.18345e-06, No Iterations 0
DILUPBiCG:  Solving for Uz, Initial residual = 3.55007e-06, Final residual = 3.55007e-06, No Iterations 0
DICPCG:  Solving for p, Initial residual = 0.0696481, Final residual = 0.00678729, No Iterations 67
DICPCG:  Solving for p, Initial residual = 0.0290655, Final residual = 0.00284725, No Iterations 220
DICPCG:  Solving for p, Initial residual = 0.00312527, Final residual = 0.000306508, No Iterations 28
time step continuity errors : sum local = 0.0162001, global = 0.000611599, cumulative = 0.00139053
DILUPBiCG:  Solving for epsilon, Initial residual = 0.00992883, Final residual = 5.77958e-07, No Iterations 4
DILUPBiCG:  Solving for k, Initial residual = 0.0483937, Final residual = 3.97173e-07, No Iterations 5
ExecutionTime = 40.14 s  ClockTime = 40 s

Time = 12

DILUPBiCG:  Solving for Ux, Initial residual = 4.05704e-06, Final residual = 4.05704e-06, No Iterations 0
DILUPBiCG:  Solving for Uy, Initial residual = 1.64415e-06, Final residual = 1.64415e-06, No Iterations 0
DILUPBiCG:  Solving for Uz, Initial residual = 5.18924e-06, Final residual = 5.18924e-06, No Iterations 0
DICPCG:  Solving for p, Initial residual = 0.0294688, Final residual = 0.00293941, No Iterations 66
DICPCG:  Solving for p, Initial residual = 0.0114924, Final residual = 0.0011304, No Iterations 71
DICPCG:  Solving for p, Initial residual = 0.00249382, Final residual = 0.000234262, No Iterations 258
time step continuity errors : sum local = 0.00608173, global = -3.20067e-05, cumulative = 0.00135852
DILUPBiCG:  Solving for epsilon, Initial residual = 0.00961184, Final residual = 6.2241e-07, No Iterations 4
DILUPBiCG:  Solving for k, Initial residual = 0.0448815, Final residual = 3.74544e-07, No Iterations 5
ExecutionTime = 43.82 s  ClockTime = 44 s

Time = 13

DILUPBiCG:  Solving for Ux, Initial residual = 4.47552e-06, Final residual = 4.47552e-06, No Iterations 0
DILUPBiCG:  Solving for Uy, Initial residual = 1.59558e-06, Final residual = 1.59558e-06, No Iterations 0
DILUPBiCG:  Solving for Uz, Initial residual = 6.04508e-06, Final residual = 6.04508e-06, No Iterations 0
DICPCG:  Solving for p, Initial residual = 0.0281277, Final residual = 0.00273807, No Iterations 87
DICPCG:  Solving for p, Initial residual = 0.00898023, Final residual = 0.000891276, No Iterations 261
DICPCG:  Solving for p, Initial residual = 0.0121508, Final residual = 0.00117351, No Iterations 22
time step continuity errors : sum local = 0.00880468, global = 5.21273e-05, cumulative = 0.00141065
DILUPBiCG:  Solving for epsilon, Initial residual = 0.00921647, Final residual = 5.92159e-07, No Iterations 4
DILUPBiCG:  Solving for k, Initial residual = 0.0419478, Final residual = 3.60852e-07, No Iterations 5
ExecutionTime = 47.31 s  ClockTime = 48 s

Time = 14

DILUPBiCG:  Solving for Ux, Initial residual = 4.4294e-06, Final residual = 4.4294e-06, No Iterations 0
DILUPBiCG:  Solving for Uy, Initial residual = 1.19757e-06, Final residual = 1.19757e-06, No Iterations 0
DILUPBiCG:  Solving for Uz, Initial residual = 5.33677e-06, Final residual = 5.33677e-06, No Iterations 0
DICPCG:  Solving for p, Initial residual = 0.0360125, Final residual = 0.00356761, No Iterations 114
DICPCG:  Solving for p, Initial residual = 0.0129439, Final residual = 0.00122994, No Iterations 257
DICPCG:  Solving for p, Initial residual = 0.00895251, Final residual = 0.000883609, No Iterations 19
time step continuity errors : sum local = 0.0118886, global = -1.258e-05, cumulative = 0.00139807
DILUPBiCG:  Solving for epsilon, Initial residual = 0.00882546, Final residual = 5.80552e-06, No Iterations 3
DILUPBiCG:  Solving for k, Initial residual = 0.0394495, Final residual = 3.17662e-07, No Iterations 5
ExecutionTime = 50.93 s  ClockTime = 51 s

Time = 15

DILUPBiCG:  Solving for Ux, Initial residual = 3.69398e-06, Final residual = 3.69398e-06, No Iterations 0
DILUPBiCG:  Solving for Uy, Initial residual = 6.95263e-07, Final residual = 6.95263e-07, No Iterations 0
DILUPBiCG:  Solving for Uz, Initial residual = 3.55305e-06, Final residual = 3.55305e-06, No Iterations 0
DICPCG:  Solving for p, Initial residual = 0.0560235, Final residual = 0.00529164, No Iterations 282
DICPCG:  Solving for p, Initial residual = 0.013246, Final residual = 0.00132396, No Iterations 13
DICPCG:  Solving for p, Initial residual = 0.00224967, Final residual = 0.000209383, No Iterations 64
time step continuity errors : sum local = 0.00441354, global = 2.2103e-05, cumulative = 0.00142017
DILUPBiCG:  Solving for epsilon, Initial residual = 0.00849608, Final residual = 1.15894e-06, No Iterations 4
DILUPBiCG:  Solving for k, Initial residual = 0.0373212, Final residual = 2.65752e-07, No Iterations 5
ExecutionTime = 54.36 s  ClockTime = 55 s

Time = 16

DILUPBiCG:  Solving for Ux, Initial residual = 2.69831e-06, Final residual = 2.69831e-06, No Iterations 0
DILUPBiCG:  Solving for Uy, Initial residual = 4.16236e-07, Final residual = 4.16236e-07, No Iterations 0
DILUPBiCG:  Solving for Uz, Initial residual = 1.96435e-06, Final residual = 1.96435e-06, No Iterations 0
DICPCG:  Solving for p, Initial residual = 0.160281, Final residual = 0.0158325, No Iterations 71
DICPCG:  Solving for p, Initial residual = 0.0612093, Final residual = 0.00579365, No Iterations 263
DICPCG:  Solving for p, Initial residual = 0.00395619, Final residual = 0.000386113, No Iterations 11
time step continuity errors : sum local = 0.00778251, global = -1.17194e-06, cumulative = 0.001419
DILUPBiCG:  Solving for epsilon, Initial residual = 0.00821449, Final residual = 3.24548e-06, No Iterations 3
DILUPBiCG:  Solving for k, Initial residual = 0.0354526, Final residual = 2.29579e-07, No Iterations 5
ExecutionTime = 57.65 s  ClockTime = 58 s

Time = 17

DILUPBiCG:  Solving for Ux, Initial residual = 1.95451e-06, Final residual = 1.95451e-06, No Iterations 0
DILUPBiCG:  Solving for Uy, Initial residual = 5.55759e-07, Final residual = 5.55759e-07, No Iterations 0
DILUPBiCG:  Solving for Uz, Initial residual = 2.32587e-06, Final residual = 2.32587e-06, No Iterations 0
DICPCG:  Solving for p, Initial residual = 0.0581188, Final residual = 0.00574773, No Iterations 62
DICPCG:  Solving for p, Initial residual = 0.020787, Final residual = 0.00201203, No Iterations 265
DICPCG:  Solving for p, Initial residual = 0.00319075, Final residual = 0.000306596, No Iterations 23
time step continuity errors : sum local = 0.00402624, global = 1.88875e-05, cumulative = 0.00143789
DILUPBiCG:  Solving for epsilon, Initial residual = 0.00805222, Final residual = 4.08402e-06, No Iterations 3
DILUPBiCG:  Solving for k, Initial residual = 0.0338015, Final residual = 2.13321e-07, No Iterations 5
ExecutionTime = 60.98 s  ClockTime = 61 s

Time = 18

DILUPBiCG:  Solving for Ux, Initial residual = 1.76467e-06, Final residual = 1.76467e-06, No Iterations 0
DILUPBiCG:  Solving for Uy, Initial residual = 6.13895e-07, Final residual = 6.13895e-07, No Iterations 0
DILUPBiCG:  Solving for Uz, Initial residual = 2.69564e-06, Final residual = 2.69564e-06, No Iterations 0
DICPCG:  Solving for p, Initial residual = 0.0367476, Final residual = 0.00359622, No Iterations 79
DICPCG:  Solving for p, Initial residual = 0.0118185, Final residual = 0.00113453, No Iterations 59
DICPCG:  Solving for p, Initial residual = 0.00302421, Final residual = 0.000295401, No Iterations 256
time step continuity errors : sum local = 0.00236344, global = 2.83421e-06, cumulative = 0.00144072
DILUPBiCG:  Solving for epsilon, Initial residual = 0.00798815, Final residual = 6.89199e-06, No Iterations 3
DILUPBiCG:  Solving for k, Initial residual = 0.0323038, Final residual = 2.16338e-07, No Iterations 5
ExecutionTime = 64.63 s  ClockTime = 65 s

Time = 19

DILUPBiCG:  Solving for Ux, Initial residual = 1.75977e-06, Final residual = 1.75977e-06, No Iterations 0
DILUPBiCG:  Solving for Uy, Initial residual = 5.43623e-07, Final residual = 5.43623e-07, No Iterations 0
DILUPBiCG:  Solving for Uz, Initial residual = 2.48262e-06, Final residual = 2.48262e-06, No Iterations 0
DICPCG:  Solving for p, Initial residual = 0.04292, Final residual = 0.00423158, No Iterations 97
DICPCG:  Solving for p, Initial residual = 0.013972, Final residual = 0.00127981, No Iterations 267
DICPCG:  Solving for p, Initial residual = 0.0065297, Final residual = 0.000642934, No Iterations 11
time step continuity errors : sum local = 0.00431641, global = -4.05899e-05, cumulative = 0.00140013
DILUPBiCG:  Solving for epsilon, Initial residual = 0.00791986, Final residual = 3.71154e-07, No Iterations 4
DILUPBiCG:  Solving for k, Initial residual = 0.0309201, Final residual = 6.06727e-07, No Iterations 5
ExecutionTime = 68.17 s  ClockTime = 68 s

Time = 20

DILUPBiCG:  Solving for Ux, Initial residual = 1.62921e-06, Final residual = 1.62921e-06, No Iterations 0
DILUPBiCG:  Solving for Uy, Initial residual = 3.96302e-07, Final residual = 3.96302e-07, No Iterations 0
DILUPBiCG:  Solving for Uz, Initial residual = 1.97614e-06, Final residual = 1.97614e-06, No Iterations 0
DICPCG:  Solving for p, Initial residual = 0.0748472, Final residual = 0.00742754, No Iterations 124
DICPCG:  Solving for p, Initial residual = 0.0300043, Final residual = 0.00291082, No Iterations 238
DICPCG:  Solving for p, Initial residual = 0.00406406, Final residual = 0.000396037, No Iterations 17
time step continuity errors : sum local = 0.00448135, global = 1.42245e-05, cumulative = 0.00141436
DILUPBiCG:  Solving for epsilon, Initial residual = 0.00781677, Final residual = 3.58638e-07, No Iterations 4
DILUPBiCG:  Solving for k, Initial residual = 0.0296158, Final residual = 1.25429e-07, No Iterations 5
ExecutionTime = 71.74 s  ClockTime = 72 s

forces porousforces write:
    sum of forces:
        pressure : (0 0 0)
        viscous  : (0 0 0)
        porous   : (46790.5 -3.4977e-13 37704.3)
    sum of moments:
        pressure : (0 0 0)
        viscous  : (0 0 0)
        porous   : (33343.8 4791.88 -41462.8)

volFieldValue volFieldValue_0 write:
    volIntegrate(cz_solid_0) of U = (9.80321e-10 -2.58533e-09 -2.3362e-09)

surfaceFieldValue massFlowAtFilter_0 write:
    sum(fz_solid_0) of phi = 5.27557e-05

volFieldValue volFieldValue_1 write:
    volIntegrate(cz_solid_1) of U = (2.21537e-10 -2.3177e-09 -2.1337e-09)

surfaceFieldValue massFlowAtFilter_1 write:
    sum(fz_solid_1) of phi = 3.05169e-05

volFieldValue volFieldValue_2 write:
    volIntegrate(cz_solid_2) of U = (-3.97189e-10 -2.42321e-09 -1.79907e-09)

surfaceFieldValue massFlowAtFilter_2 write:
    sum(fz_solid_2) of phi = -4.58017e-05

volFieldValue volFieldValue_3 write:
    volIntegrate(cz_solid_3) of U = (-8.78348e-10 -2.3315e-09 -1.40186e-09)

surfaceFieldValue massFlowAtFilter_3 write:
    sum(fz_solid_3) of phi = 2.01835e-06

volFieldValue volFieldValue_4 write:
    volIntegrate(cz_solid_4) of U = (-1.26073e-09 -2.15337e-09 -9.0942e-10)

surfaceFieldValue massFlowAtFilter_4 write:
    sum(fz_solid_4) of phi = 7.30717e-06

volFieldValue volFieldValue_5 write:
    volIntegrate(cz_solid_5) of U = (-1.58072e-09 -2.08949e-09 -4.42793e-10)

surfaceFieldValue massFlowAtFilter_5 write:
    sum(fz_solid_5) of phi = -7.09642e-05

volFieldValue volFieldValue_6 write:
    volIntegrate(cz_solid_6) of U = (-1.88492e-09 -2.21611e-09 1.15344e-10)

surfaceFieldValue massFlowAtFilter_6 write:
    sum(fz_solid_6) of phi = -4.40456e-05

volFieldValue volFieldValue_7 write:
    volIntegrate(cz_solid_7) of U = (-2.06532e-09 -2.26407e-09 8.24423e-10)

surfaceFieldValue massFlowAtFilter_7 write:
    sum(fz_solid_7) of phi = 2.00363e-05

volFieldValue volFieldValue_8 write:
    volIntegrate(cz_solid_8) of U = (-2.05324e-09 -2.41778e-09 1.63613e-09)

surfaceFieldValue massFlowAtFilter_8 write:
    sum(fz_solid_8) of phi = -1.31917e-05

volFieldValue volFieldValue_9 write:
    volIntegrate(cz_solid_9) of U = (-1.72016e-09 -2.54663e-09 2.56913e-09)

surfaceFieldValue massFlowAtFilter_9 write:
    sum(fz_solid_9) of phi = 2.5168e-06

volFieldValue volFieldValue_10 write:
    volIntegrate(cz_solid_10) of U = (-1.00528e-09 -2.47463e-09 3.40069e-09)

surfaceFieldValue massFlowAtFilter_10 write:
    sum(fz_solid_10) of phi = -4.90379e-05

volFieldValue volFieldValue_11 write:
    volIntegrate(cz_solid_11) of U = (5.11911e-11 -2.31843e-09 3.98429e-09)

surfaceFieldValue massFlowAtFilter_11 write:
    sum(fz_solid_11) of phi = 5.41779e-06

volFieldValue volFieldValue_12 write:
    volIntegrate(cz_solid_12) of U = (1.40824e-09 -2.30885e-09 4.13573e-09)

surfaceFieldValue massFlowAtFilter_12 write:
    sum(fz_solid_12) of phi = 3.84619e-06

volFieldValue volFieldValue_13 write:
    volIntegrate(cz_solid_13) of U = (2.81033e-09 -2.5849e-09 3.68981e-09)

surfaceFieldValue massFlowAtFilter_13 write:
    sum(fz_solid_13) of phi = 6.3553e-05

volFieldValue volFieldValue_14 write:
    volIntegrate(cz_solid_14) of U = (3.79226e-09 -2.96489e-09 2.67607e-09)

surfaceFieldValue massFlowAtFilter_14 write:
    sum(fz_solid_14) of phi = 0.00010434

volFieldValue volFieldValue_15 write:
    volIntegrate(cz_solid_15) of U = (4.18597e-09 -3.21753e-09 1.3002e-09)

surfaceFieldValue massFlowAtFilter_15 write:
    sum(fz_solid_15) of phi = 9.17339e-05

volFieldValue volFieldValue_16 write:
    volIntegrate(cz_solid_16) of U = (4.05486e-09 -3.08462e-09 -4.56224e-12)

surfaceFieldValue massFlowAtFilter_16 write:
    sum(fz_solid_16) of phi = 3.72425e-05

volFieldValue volFieldValue_17 write:
    volIntegrate(cz_solid_17) of U = (3.56333e-09 -2.9998e-09 -1.10394e-09)

surfaceFieldValue massFlowAtFilter_17 write:
    sum(fz_solid_17) of phi = -1.94239e-05

volFieldValue volFieldValue_18 write:
    volIntegrate(cz_solid_18) of U = (2.8118e-09 -2.76765e-09 -1.89609e-09)

surfaceFieldValue massFlowAtFilter_18 write:
    sum(fz_solid_18) of phi = 6.64233e-05

volFieldValue volFieldValue_19 write:
    volIntegrate(cz_solid_19) of U = (1.88151e-09 -2.63645e-09 -2.26237e-09)

surfaceFieldValue massFlowAtFilter_19 write:
    sum(fz_solid_19) of phi = 8.40184e-06

volFieldValue volFieldValue_20 write:
    volIntegrate(cz_solid_20) of U = (8.27082e-10 -6.15556e-09 -1.68081e-09)

surfaceFieldValue massFlowAtFilter_20 write:
    sum(fz_solid_20) of phi = 1.82905e-05

volFieldValue volFieldValue_21 write:
    volIntegrate(cz_solid_21) of U = (2.30015e-10 -5.62922e-09 -1.52909e-09)

surfaceFieldValue massFlowAtFilter_21 write:
    sum(fz_solid_21) of phi = 1.99013e-05

volFieldValue volFieldValue_22 write:
    volIntegrate(cz_solid_22) of U = (-2.43724e-10 -5.49196e-09 -1.27808e-09)

surfaceFieldValue massFlowAtFilter_22 write:
    sum(fz_solid_22) of phi = -3.76143e-05

volFieldValue volFieldValue_23 write:
    volIntegrate(cz_solid_23) of U = (-6.02454e-10 -5.27034e-09 -9.86284e-10)

surfaceFieldValue massFlowAtFilter_23 write:
    sum(fz_solid_23) of phi = 1.74654e-05

volFieldValue volFieldValue_24 write:
    volIntegrate(cz_solid_24) of U = (-9.01714e-10 -4.84417e-09 -6.28874e-10)

surfaceFieldValue massFlowAtFilter_24 write:
    sum(fz_solid_24) of phi = 1.02668e-05

volFieldValue volFieldValue_25 write:
    volIntegrate(cz_solid_25) of U = (-1.15528e-09 -4.51267e-09 -2.84843e-10)

surfaceFieldValue massFlowAtFilter_25 write:
    sum(fz_solid_25) of phi = 2.91667e-07

volFieldValue volFieldValue_26 write:
    volIntegrate(cz_solid_26) of U = (-1.39403e-09 -4.75916e-09 1.34809e-10)

surfaceFieldValue massFlowAtFilter_26 write:
    sum(fz_solid_26) of phi = -2.74465e-07

volFieldValue volFieldValue_27 write:
    volIntegrate(cz_solid_27) of U = (-1.51867e-09 -4.81586e-09 6.78696e-10)

surfaceFieldValue massFlowAtFilter_27 write:
    sum(fz_solid_27) of phi = 2.28677e-05

volFieldValue volFieldValue_28 write:
    volIntegrate(cz_solid_28) of U = (-1.48385e-09 -5.31392e-09 1.29806e-09)

surfaceFieldValue massFlowAtFilter_28 write:
    sum(fz_solid_28) of phi = 3.37368e-05

volFieldValue volFieldValue_29 write:
    volIntegrate(cz_solid_29) of U = (-1.18396e-09 -5.88389e-09 1.98456e-09)

surfaceFieldValue massFlowAtFilter_29 write:
    sum(fz_solid_29) of phi = 1.28289e-05

volFieldValue volFieldValue_30 write:
    volIntegrate(cz_solid_30) of U = (-6.19325e-10 -6.75413e-09 2.5635e-09)

surfaceFieldValue massFlowAtFilter_30 write:
    sum(fz_solid_30) of phi = -7.66982e-06

volFieldValue volFieldValue_31 write:
    volIntegrate(cz_solid_31) of U = (1.90415e-10 -7.93394e-09 2.94723e-09)

surfaceFieldValue massFlowAtFilter_31 write:
    sum(fz_solid_31) of phi = -2.68023e-05

volFieldValue volFieldValue_32 write:
    volIntegrate(cz_solid_32) of U = (1.18649e-09 -8.59991e-09 3.01766e-09)

surfaceFieldValue massFlowAtFilter_32 write:
    sum(fz_solid_32) of phi = -8.7268e-06

volFieldValue volFieldValue_33 write:
    volIntegrate(cz_solid_33) of U = (2.21996e-09 -9.23154e-09 2.69735e-09)

surfaceFieldValue massFlowAtFilter_33 write:
    sum(fz_solid_33) of phi = 5.1765e-05

volFieldValue volFieldValue_34 write:
    volIntegrate(cz_solid_34) of U = (2.95479e-09 -9.36242e-09 2.04647e-09)

surfaceFieldValue massFlowAtFilter_34 write:
    sum(fz_solid_34) of phi = 4.01785e-05

volFieldValue volFieldValue_35 write:
    volIntegrate(cz_solid_35) of U = (3.3293e-09 -8.8732e-09 1.10087e-09)

surfaceFieldValue massFlowAtFilter_35 write:
    sum(fz_solid_35) of phi = 4.26526e-05

volFieldValue volFieldValue_36 write:
    volIntegrate(cz_solid_36) of U = (3.30096e-09 -8.03407e-09 1.55413e-10)

surfaceFieldValue massFlowAtFilter_36 write:
    sum(fz_solid_36) of phi = 2.52006e-05

volFieldValue volFieldValue_37 write:
    volIntegrate(cz_solid_37) of U = (2.92249e-09 -7.25833e-09 -6.83363e-10)

surfaceFieldValue massFlowAtFilter_37 write:
    sum(fz_solid_37) of phi = 4.19566e-06

volFieldValue volFieldValue_38 write:
    volIntegrate(cz_solid_38) of U = (2.32974e-09 -6.98608e-09 -1.30692e-09)

surfaceFieldValue massFlowAtFilter_38 write:
    sum(fz_solid_38) of phi = -1.1557e-05

volFieldValue volFieldValue_39 write:
    volIntegrate(cz_solid_39) of U = (1.56703e-09 -6.35957e-09 -1.61522e-09)

surfaceFieldValue massFlowAtFilter_39 write:
    sum(fz_solid_39) of phi = 2.27818e-05

volFieldValue volFieldValue_40 write:
    volIntegrate(cz_solid_40) of U = (5.31299e-10 -5.50442e-09 -6.79518e-10)

surfaceFieldValue massFlowAtFilter_40 write:
    sum(fz_solid_40) of phi = 2.31636e-05

volFieldValue volFieldValue_41 write:
    volIntegrate(cz_solid_41) of U = (2.003e-10 -4.93048e-09 -6.27623e-10)

surfaceFieldValue massFlowAtFilter_41 write:
    sum(fz_solid_41) of phi = 8.96996e-06

volFieldValue volFieldValue_42 write:
    volIntegrate(cz_solid_42) of U = (-4.4381e-11 -4.87653e-09 -5.21204e-10)

surfaceFieldValue massFlowAtFilter_42 write:
    sum(fz_solid_42) of phi = 1.11038e-06

volFieldValue volFieldValue_43 write:
    volIntegrate(cz_solid_43) of U = (-2.48357e-10 -4.64753e-09 -3.95353e-10)

surfaceFieldValue massFlowAtFilter_43 write:
    sum(fz_solid_43) of phi = 1.0434e-05

volFieldValue volFieldValue_44 write:
    volIntegrate(cz_solid_44) of U = (-4.43652e-10 -4.30108e-09 -2.33454e-10)

surfaceFieldValue massFlowAtFilter_44 write:
    sum(fz_solid_44) of phi = 2.627e-06

volFieldValue volFieldValue_45 write:
    volIntegrate(cz_solid_45) of U = (-6.2232e-10 -4.14389e-09 -5.97038e-11)

surfaceFieldValue massFlowAtFilter_45 write:
    sum(fz_solid_45) of phi = 2.88104e-06

volFieldValue volFieldValue_46 write:
    volIntegrate(cz_solid_46) of U = (-7.85773e-10 -4.33177e-09 1.74186e-10)

surfaceFieldValue massFlowAtFilter_46 write:
    sum(fz_solid_46) of phi = -1.07277e-05

volFieldValue volFieldValue_47 write:
    volIntegrate(cz_solid_47) of U = (-8.6309e-10 -4.37188e-09 5.2642e-10)

surfaceFieldValue massFlowAtFilter_47 write:
    sum(fz_solid_47) of phi = 2.3468e-05

volFieldValue volFieldValue_48 write:
    volIntegrate(cz_solid_48) of U = (-8.16528e-10 -4.63734e-09 9.19154e-10)

surfaceFieldValue massFlowAtFilter_48 write:
    sum(fz_solid_48) of phi = -4.83815e-06

volFieldValue volFieldValue_49 write:
    volIntegrate(cz_solid_49) of U = (-5.75381e-10 -4.94472e-09 1.33689e-09)

surfaceFieldValue massFlowAtFilter_49 write:
    sum(fz_solid_49) of phi = -3.86303e-06

volFieldValue volFieldValue_50 write:
    volIntegrate(cz_solid_50) of U = (-1.46258e-10 -5.42835e-09 1.67665e-09)

surfaceFieldValue massFlowAtFilter_50 write:
    sum(fz_solid_50) of phi = 8.07867e-06

volFieldValue volFieldValue_51 write:
    volIntegrate(cz_solid_51) of U = (3.92788e-10 -6.18153e-09 1.85995e-09)

surfaceFieldValue massFlowAtFilter_51 write:
    sum(fz_solid_51) of phi = -6.08529e-06

volFieldValue volFieldValue_52 write:
    volIntegrate(cz_solid_52) of U = (1.07149e-09 -6.84013e-09 1.87386e-09)

surfaceFieldValue massFlowAtFilter_52 write:
    sum(fz_solid_52) of phi = 1.93613e-06

volFieldValue volFieldValue_53 write:
    volIntegrate(cz_solid_53) of U = (1.7803e-09 -7.92593e-09 1.74034e-09)

surfaceFieldValue massFlowAtFilter_53 write:
    sum(fz_solid_53) of phi = 1.42199e-05

volFieldValue volFieldValue_54 write:
    volIntegrate(cz_solid_54) of U = (2.39459e-09 -9.30143e-09 1.51035e-09)

surfaceFieldValue massFlowAtFilter_54 write:
    sum(fz_solid_54) of phi = 3.12302e-05

volFieldValue volFieldValue_55 write:
    volIntegrate(cz_solid_55) of U = (2.80094e-09 -9.90488e-09 1.04627e-09)

surfaceFieldValue massFlowAtFilter_55 write:
    sum(fz_solid_55) of phi = 2.15171e-05

volFieldValue volFieldValue_56 write:
    volIntegrate(cz_solid_56) of U = (2.65704e-09 -9.3818e-09 5.73775e-10)

surfaceFieldValue massFlowAtFilter_56 write:
    sum(fz_solid_56) of phi = -1.37327e-05

volFieldValue volFieldValue_57 write:
    volIntegrate(cz_solid_57) of U = (2.05888e-09 -7.71707e-09 9.91941e-11)

surfaceFieldValue massFlowAtFilter_57 write:
    sum(fz_solid_57) of phi = 8.1548e-07

volFieldValue volFieldValue_58 write:
    volIntegrate(cz_solid_58) of U = (1.47106e-09 -6.42492e-09 -4.03766e-10)

surfaceFieldValue massFlowAtFilter_58 write:
    sum(fz_solid_58) of phi = 6.79744e-06

volFieldValue volFieldValue_59 write:
    volIntegrate(cz_solid_59) of U = (9.79408e-10 -5.62089e-09 -6.12721e-10)

surfaceFieldValue massFlowAtFilter_59 write:
    sum(fz_solid_59) of phi = 5.63302e-06

volFieldValue volFieldValue_60 write:
    volIntegrate(cz_solid_60) of U = (1.45925e-11 -3.99747e-09 2.20741e-10)

surfaceFieldValue massFlowAtFilter_60 write:
    sum(fz_solid_60) of phi = -2.54274e-06

volFieldValue volFieldValue_61 write:
    volIntegrate(cz_solid_61) of U = (4.49876e-11 -3.51619e-09 1.12258e-10)

surfaceFieldValue massFlowAtFilter_61 write:
    sum(fz_solid_61) of phi = -7.84647e-06

volFieldValue volFieldValue_62 write:
    volIntegrate(cz_solid_62) of U = (1.5558e-11 -3.40573e-09 4.65878e-11)

surfaceFieldValue massFlowAtFilter_62 write:
    sum(fz_solid_62) of phi = -6.44848e-06

volFieldValue volFieldValue_63 write:
    volIntegrate(cz_solid_63) of U = (-8.00201e-11 -3.23192e-09 2.58881e-11)

surfaceFieldValue massFlowAtFilter_63 write:
    sum(fz_solid_63) of phi = -1.18772e-05

volFieldValue volFieldValue_64 write:
    volIntegrate(cz_solid_64) of U = (-1.98291e-10 -2.99652e-09 4.67123e-11)

surfaceFieldValue massFlowAtFilter_64 write:
    sum(fz_solid_64) of phi = -1.44627e-05

volFieldValue volFieldValue_65 write:
    volIntegrate(cz_solid_65) of U = (-3.17175e-10 -2.88872e-09 1.12463e-10)

surfaceFieldValue massFlowAtFilter_65 write:
    sum(fz_solid_65) of phi = -1.9052e-05

volFieldValue volFieldValue_66 write:
    volIntegrate(cz_solid_66) of U = (-4.24459e-10 -3.06093e-09 2.28577e-10)

surfaceFieldValue massFlowAtFilter_66 write:
    sum(fz_solid_66) of phi = -1.48782e-05

volFieldValue volFieldValue_67 write:
    volIntegrate(cz_solid_67) of U = (-4.74126e-10 -3.07152e-09 4.61673e-10)

surfaceFieldValue massFlowAtFilter_67 write:
    sum(fz_solid_67) of phi = -1.20388e-05

volFieldValue volFieldValue_68 write:
    volIntegrate(cz_solid_68) of U = (-4.44215e-10 -3.26246e-09 7.37455e-10)

surfaceFieldValue massFlowAtFilter_68 write:
    sum(fz_solid_68) of phi = -1.72266e-05

volFieldValue volFieldValue_69 write:
    volIntegrate(cz_solid_69) of U = (-2.50322e-10 -3.52835e-09 1.06961e-09)

surfaceFieldValue massFlowAtFilter_69 write:
    sum(fz_solid_69) of phi = -1.05355e-05

volFieldValue volFieldValue_70 write:
    volIntegrate(cz_solid_70) of U = (1.22393e-10 -3.94572e-09 1.36642e-09)

surfaceFieldValue massFlowAtFilter_70 write:
    sum(fz_solid_70) of phi = -2.16261e-05

volFieldValue volFieldValue_71 write:
    volIntegrate(cz_solid_71) of U = (6.23616e-10 -4.65659e-09 1.54731e-09)

surfaceFieldValue massFlowAtFilter_71 write:
    sum(fz_solid_71) of phi = -1.4876e-05

volFieldValue volFieldValue_72 write:
    volIntegrate(cz_solid_72) of U = (1.33639e-09 -5.54044e-09 1.60042e-09)

surfaceFieldValue massFlowAtFilter_72 write:
    sum(fz_solid_72) of phi = -2.77927e-05

volFieldValue volFieldValue_73 write:
    volIntegrate(cz_solid_73) of U = (2.26651e-09 -7.27221e-09 1.55499e-09)

surfaceFieldValue massFlowAtFilter_73 write:
    sum(fz_solid_73) of phi = -4.38453e-06

volFieldValue volFieldValue_74 write:
    volIntegrate(cz_solid_74) of U = (3.4118e-09 -1.0015e-08 1.44958e-09)

surfaceFieldValue massFlowAtFilter_74 write:
    sum(fz_solid_74) of phi = 3.62059e-05

volFieldValue volFieldValue_75 write:
    volIntegrate(cz_solid_75) of U = (4.82126e-09 -1.37688e-08 8.3293e-10)

surfaceFieldValue massFlowAtFilter_75 write:
    sum(fz_solid_75) of phi = 5.3128e-05

volFieldValue volFieldValue_76 write:
    volIntegrate(cz_solid_76) of U = (5.28734e-09 -1.9576e-08 4.5207e-10)

surfaceFieldValue massFlowAtFilter_76 write:
    sum(fz_solid_76) of phi = -1.0687e-05

volFieldValue volFieldValue_77 write:
    volIntegrate(cz_solid_77) of U = (2.00629e-09 -1.65973e-08 3.94939e-09)

surfaceFieldValue massFlowAtFilter_77 write:
    sum(fz_solid_77) of phi = 3.04302e-05

volFieldValue volFieldValue_78 write:
    volIntegrate(cz_solid_78) of U = (-1.10909e-09 -5.7417e-09 7.4001e-10)

surfaceFieldValue massFlowAtFilter_78 write:
    sum(fz_solid_78) of phi = -2.65437e-05

volFieldValue volFieldValue_79 write:
    volIntegrate(cz_solid_79) of U = (-1.86267e-10 -4.03084e-09 3.76312e-10)

surfaceFieldValue massFlowAtFilter_79 write:
    sum(fz_solid_79) of phi = -1.69363e-05

volFieldValue volFieldValue_80 write:
    volIntegrate(cz_solid_80) of U = (-4.57322e-10 -1.90565e-09 8.18063e-10)

surfaceFieldValue massFlowAtFilter_80 write:
    sum(fz_solid_80) of phi = -2.51277e-05

volFieldValue volFieldValue_81 write:
    volIntegrate(cz_solid_81) of U = (-1.33448e-10 -1.68954e-09 5.4396e-10)

surfaceFieldValue massFlowAtFilter_81 write:
    sum(fz_solid_81) of phi = -1.9804e-05

volFieldValue volFieldValue_82 write:
    volIntegrate(cz_solid_82) of U = (-1.4607e-11 -1.5785e-09 3.23082e-10)

surfaceFieldValue massFlowAtFilter_82 write:
    sum(fz_solid_82) of phi = -1.84492e-06

volFieldValue volFieldValue_83 write:
    volIntegrate(cz_solid_83) of U = (-5.23914e-11 -1.42169e-09 2.20469e-10)

surfaceFieldValue massFlowAtFilter_83 write:
    sum(fz_solid_83) of phi = -7.09524e-06

volFieldValue volFieldValue_84 write:
    volIntegrate(cz_solid_84) of U = (-1.33432e-10 -1.26916e-09 1.86224e-10)

surfaceFieldValue massFlowAtFilter_84 write:
    sum(fz_solid_84) of phi = -1.34533e-05

volFieldValue volFieldValue_85 write:
    volIntegrate(cz_solid_85) of U = (-2.10694e-10 -1.18875e-09 2.14426e-10)

surfaceFieldValue massFlowAtFilter_85 write:
    sum(fz_solid_85) of phi = -2.45118e-05

volFieldValue volFieldValue_86 write:
    volIntegrate(cz_solid_86) of U = (-2.69531e-10 -1.22995e-09 2.8744e-10)

surfaceFieldValue massFlowAtFilter_86 write:
    sum(fz_solid_86) of phi = -1.08257e-05

volFieldValue volFieldValue_87 write:
    volIntegrate(cz_solid_87) of U = (-2.93387e-10 -1.21302e-09 4.61998e-10)

surfaceFieldValue massFlowAtFilter_87 write:
    sum(fz_solid_87) of phi = 8.16592e-06

volFieldValue volFieldValue_88 write:
    volIntegrate(cz_solid_88) of U = (-2.55803e-10 -1.34009e-09 6.99902e-10)

surfaceFieldValue massFlowAtFilter_88 write:
    sum(fz_solid_88) of phi = -1.31091e-05

volFieldValue volFieldValue_89 write:
    volIntegrate(cz_solid_89) of U = (-7.60581e-11 -1.50007e-09 1.00177e-09)

surfaceFieldValue massFlowAtFilter_89 write:
    sum(fz_solid_89) of phi = 1.90865e-06

volFieldValue volFieldValue_90 write:
    volIntegrate(cz_solid_90) of U = (2.86616e-10 -1.65701e-09 1.29673e-09)

surfaceFieldValue massFlowAtFilter_90 write:
    sum(fz_solid_90) of phi = -1.10592e-05

volFieldValue volFieldValue_91 write:
    volIntegrate(cz_solid_91) of U = (8.31688e-10 -1.94309e-09 1.49405e-09)

surfaceFieldValue massFlowAtFilter_91 write:
    sum(fz_solid_91) of phi = 3.45279e-06

volFieldValue volFieldValue_92 write:
    volIntegrate(cz_solid_92) of U = (1.70182e-09 -2.35744e-09 1.51122e-09)

surfaceFieldValue massFlowAtFilter_92 write:
    sum(fz_solid_92) of phi = -7.40278e-06

volFieldValue volFieldValue_93 write:
    volIntegrate(cz_solid_93) of U = (2.90724e-09 -3.27254e-09 1.34268e-09)

surfaceFieldValue massFlowAtFilter_93 write:
    sum(fz_solid_93) of phi = 1.99034e-05

volFieldValue volFieldValue_94 write:
    volIntegrate(cz_solid_94) of U = (4.5563e-09 -4.47135e-09 1.07604e-09)

surfaceFieldValue massFlowAtFilter_94 write:
    sum(fz_solid_94) of phi = 0.000118252

volFieldValue volFieldValue_95 write:
    volIntegrate(cz_solid_95) of U = (7.45636e-09 -5.10186e-09 3.17433e-11)

[...]

surfaceFieldValue massFlowAtFilter_51 write:
    sum(fz_solid_51) of phi = -1.43151e-05

volFieldValue volFieldValue_52 write:
    volIntegrate(cz_solid_52) of U = (1.66754e-10 -3.51414e-08 8.97452e-11)

surfaceFieldValue massFlowAtFilter_52 write:
    sum(fz_solid_52) of phi = 1.76946e-05

volFieldValue volFieldValue_53 write:
    volIntegrate(cz_solid_53) of U = (1.41778e-10 -8.45892e-09 1.20267e-10)

surfaceFieldValue massFlowAtFilter_53 write:
    sum(fz_solid_53) of phi = 2.56748e-05

volFieldValue volFieldValue_54 write:
    volIntegrate(cz_solid_54) of U = (7.20391e-11 1.90607e-08 4.91334e-11)

surfaceFieldValue massFlowAtFilter_54 write:
    sum(fz_solid_54) of phi = 1.8681e-05

volFieldValue volFieldValue_55 write:
    volIntegrate(cz_solid_55) of U = (-4.39731e-11 4.34355e-08 -5.36613e-11)

surfaceFieldValue massFlowAtFilter_55 write:
    sum(fz_solid_55) of phi = 1.18939e-05

volFieldValue volFieldValue_56 write:
    volIntegrate(cz_solid_56) of U = (-1.65013e-10 4.78726e-08 -1.0367e-10)

surfaceFieldValue massFlowAtFilter_56 write:
    sum(fz_solid_56) of phi = 1.66628e-05

volFieldValue volFieldValue_57 write:
    volIntegrate(cz_solid_57) of U = (-2.55546e-10 3.41053e-08 -1.66648e-11)

surfaceFieldValue massFlowAtFilter_57 write:
    sum(fz_solid_57) of phi = 4.05821e-05

volFieldValue volFieldValue_58 write:
    volIntegrate(cz_solid_58) of U = (-2.28051e-10 1.33665e-08 1.49831e-10)

surfaceFieldValue massFlowAtFilter_58 write:
    sum(fz_solid_58) of phi = -4.40658e-05

volFieldValue volFieldValue_59 write:
    volIntegrate(cz_solid_59) of U = (-1.72768e-10 -1.72849e-09 2.70136e-10)

surfaceFieldValue massFlowAtFilter_59 write:
    sum(fz_solid_59) of phi = -7.13528e-05

volFieldValue volFieldValue_60 write:
    volIntegrate(cz_solid_60) of U = (-3.01883e-10 1.23564e-08 4.46797e-10)

surfaceFieldValue massFlowAtFilter_60 write:
    sum(fz_solid_60) of phi = -7.46027e-05

volFieldValue volFieldValue_61 write:
    volIntegrate(cz_solid_61) of U = (-2.90167e-10 -3.93735e-09 4.31403e-10)

surfaceFieldValue massFlowAtFilter_61 write:
    sum(fz_solid_61) of phi = 2.6242e-05

volFieldValue volFieldValue_62 write:
    volIntegrate(cz_solid_62) of U = (-6.0641e-10 -2.19471e-08 7.0933e-10)

surfaceFieldValue massFlowAtFilter_62 write:
    sum(fz_solid_62) of phi = -1.98201e-05

volFieldValue volFieldValue_63 write:
    volIntegrate(cz_solid_63) of U = (-1.12606e-09 -4.66457e-08 1.71219e-09)

surfaceFieldValue massFlowAtFilter_63 write:
    sum(fz_solid_63) of phi = 0.000538812

volFieldValue volFieldValue_64 write:
    volIntegrate(cz_solid_64) of U = (-5.39046e-10 -7.1737e-08 3.68313e-09)

surfaceFieldValue massFlowAtFilter_64 write:
    sum(fz_solid_64) of phi = 0.000246376

volFieldValue volFieldValue_65 write:
    volIntegrate(cz_solid_65) of U = (1.60821e-09 -9.40601e-08 4.479e-09)

surfaceFieldValue massFlowAtFilter_65 write:
    sum(fz_solid_65) of phi = 0.000140706

volFieldValue volFieldValue_66 write:
    volIntegrate(cz_solid_66) of U = (1.97139e-09 -1.14754e-07 2.97848e-09)

surfaceFieldValue massFlowAtFilter_66 write:
    sum(fz_solid_66) of phi = -0.000607851

volFieldValue volFieldValue_67 write:
    volIntegrate(cz_solid_67) of U = (1.68341e-09 -1.25931e-07 2.80296e-09)

surfaceFieldValue massFlowAtFilter_67 write:
    sum(fz_solid_67) of phi = 0.000571773

volFieldValue volFieldValue_68 write:
    volIntegrate(cz_solid_68) of U = (3.02811e-09 -1.31457e-07 1.98531e-09)

surfaceFieldValue massFlowAtFilter_68 write:
    sum(fz_solid_68) of phi = 1.95068e-05

volFieldValue volFieldValue_69 write:
    volIntegrate(cz_solid_69) of U = (2.12349e-09 -1.20179e-07 3.16781e-12)

surfaceFieldValue massFlowAtFilter_69 write:
    sum(fz_solid_69) of phi = -2.68393e-05

volFieldValue volFieldValue_70 write:
    volIntegrate(cz_solid_70) of U = (8.09362e-10 -8.37604e-08 -7.43021e-10)

surfaceFieldValue massFlowAtFilter_70 write:
    sum(fz_solid_70) of phi = -0.000282876

volFieldValue volFieldValue_71 write:
    volIntegrate(cz_solid_71) of U = (4.23944e-10 -6.87171e-08 -5.55901e-10)

surfaceFieldValue massFlowAtFilter_71 write:
    sum(fz_solid_71) of phi = -2.4028e-05

volFieldValue volFieldValue_72 write:
    volIntegrate(cz_solid_72) of U = (-6.64904e-11 -4.05566e-08 -4.09437e-10)

surfaceFieldValue massFlowAtFilter_72 write:
    sum(fz_solid_72) of phi = 4.72418e-05

volFieldValue volFieldValue_73 write:
    volIntegrate(cz_solid_73) of U = (-4.15951e-10 2.0505e-08 -3.75026e-10)

surfaceFieldValue massFlowAtFilter_73 write:
    sum(fz_solid_73) of phi = -3.60006e-05

volFieldValue volFieldValue_74 write:
    volIntegrate(cz_solid_74) of U = (-5.78279e-10 7.13173e-08 -3.71793e-10)

surfaceFieldValue massFlowAtFilter_74 write:
    sum(fz_solid_74) of phi = -1.31865e-05

volFieldValue volFieldValue_75 write:
    volIntegrate(cz_solid_75) of U = (-5.63101e-10 8.88717e-08 -3.87744e-10)

surfaceFieldValue massFlowAtFilter_75 write:
    sum(fz_solid_75) of phi = -9.31525e-05

volFieldValue volFieldValue_76 write:
    volIntegrate(cz_solid_76) of U = (-4.75649e-10 5.57114e-08 -3.03879e-10)

surfaceFieldValue massFlowAtFilter_76 write:
    sum(fz_solid_76) of phi = 3.55503e-05

volFieldValue volFieldValue_77 write:
    volIntegrate(cz_solid_77) of U = (-3.64169e-10 4.17794e-08 -7.7159e-11)

surfaceFieldValue massFlowAtFilter_77 write:
    sum(fz_solid_77) of phi = -6.11953e-06

volFieldValue volFieldValue_78 write:
    volIntegrate(cz_solid_78) of U = (-3.35804e-10 4.48979e-08 8.76877e-11)

surfaceFieldValue massFlowAtFilter_78 write:
    sum(fz_solid_78) of phi = -0.000231261

volFieldValue volFieldValue_79 write:
    volIntegrate(cz_solid_79) of U = (-3.30897e-10 2.52473e-08 3.041e-10)

surfaceFieldValue massFlowAtFilter_79 write:
    sum(fz_solid_79) of phi = -4.0456e-05

volFieldValue volFieldValue_80 write:
    volIntegrate(cz_solid_80) of U = (-3.80977e-10 -3.83432e-09 3.15742e-10)

surfaceFieldValue massFlowAtFilter_80 write:
    sum(fz_solid_80) of phi = -4.90218e-06

volFieldValue volFieldValue_81 write:
    volIntegrate(cz_solid_81) of U = (-4.05161e-10 -1.573e-08 4.25477e-10)

surfaceFieldValue massFlowAtFilter_81 write:
    sum(fz_solid_81) of phi = -3.8464e-06

volFieldValue volFieldValue_82 write:
    volIntegrate(cz_solid_82) of U = (-8.21119e-10 -2.27154e-08 7.48932e-10)

surfaceFieldValue massFlowAtFilter_82 write:
    sum(fz_solid_82) of phi = -2.32394e-05

volFieldValue volFieldValue_83 write:
    volIntegrate(cz_solid_83) of U = (-1.44214e-09 -2.98877e-08 1.90128e-09)

surfaceFieldValue massFlowAtFilter_83 write:
    sum(fz_solid_83) of phi = 0.000397528

volFieldValue volFieldValue_84 write:
    volIntegrate(cz_solid_84) of U = (-8.66096e-10 -3.1012e-08 4.50523e-09)

surfaceFieldValue massFlowAtFilter_84 write:
    sum(fz_solid_84) of phi = 0.000638663

volFieldValue volFieldValue_85 write:
    volIntegrate(cz_solid_85) of U = (1.78395e-09 -3.02113e-08 5.57575e-09)

surfaceFieldValue massFlowAtFilter_85 write:
    sum(fz_solid_85) of phi = 1.4423e-05

volFieldValue volFieldValue_86 write:
    volIntegrate(cz_solid_86) of U = (2.5958e-09 -2.066e-08 3.64786e-09)

surfaceFieldValue massFlowAtFilter_86 write:
    sum(fz_solid_86) of phi = -0.000803662

volFieldValue volFieldValue_87 write:
    volIntegrate(cz_solid_87) of U = (2.54816e-09 -1.62995e-08 3.4971e-09)

surfaceFieldValue massFlowAtFilter_87 write:
    sum(fz_solid_87) of phi = 0.00170135

volFieldValue volFieldValue_88 write:
    volIntegrate(cz_solid_88) of U = (4.46891e-09 -1.27778e-08 2.47757e-09)

surfaceFieldValue massFlowAtFilter_88 write:
    sum(fz_solid_88) of phi = -0.000309411

volFieldValue volFieldValue_89 write:
    volIntegrate(cz_solid_89) of U = (4.34474e-09 -2.11169e-08 -2.87394e-10)

surfaceFieldValue massFlowAtFilter_89 write:
    sum(fz_solid_89) of phi = 9.89812e-06

volFieldValue volFieldValue_90 write:
    volIntegrate(cz_solid_90) of U = (1.68871e-09 -1.82094e-08 -1.51539e-09)

surfaceFieldValue massFlowAtFilter_90 write:
    sum(fz_solid_90) of phi = -0.000574779

volFieldValue volFieldValue_91 write:
    volIntegrate(cz_solid_91) of U = (7.31562e-10 -3.82958e-08 -7.93691e-10)

surfaceFieldValue massFlowAtFilter_91 write:
    sum(fz_solid_91) of phi = -3.65712e-05

volFieldValue volFieldValue_92 write:
    volIntegrate(cz_solid_92) of U = (4.22533e-10 -4.55484e-08 -8.61292e-10)

surfaceFieldValue massFlowAtFilter_92 write:
    sum(fz_solid_92) of phi = 2.48136e-05

volFieldValue volFieldValue_93 write:
    volIntegrate(cz_solid_93) of U = (-3.98399e-10 -3.99537e-08 -1.38878e-09)

surfaceFieldValue massFlowAtFilter_93 write:
    sum(fz_solid_93) of phi = -0.000153143

volFieldValue volFieldValue_94 write:
    volIntegrate(cz_solid_94) of U = (-1.47325e-09 -6.69504e-09 -9.05777e-10)

surfaceFieldValue massFlowAtFilter_94 write:
    sum(fz_solid_94) of phi = 0.000279729

volFieldValue volFieldValue_95 write:
    volIntegrate(cz_solid_95) of U = (-9.97175e-10 2.33144e-08 -5.62501e-10)

surfaceFieldValue massFlowAtFilter_95 write:
    sum(fz_solid_95) of phi = -1.09831e-05

volFieldValue volFieldValue_96 write:
    volIntegrate(cz_solid_96) of U = (-5.24972e-10 3.65207e-08 -4.28965e-10)

surfaceFieldValue massFlowAtFilter_96 write:
    sum(fz_solid_96) of phi = 0.000146937

volFieldValue volFieldValue_97 write:
    volIntegrate(cz_solid_97) of U = (-2.8504e-10 4.29052e-08 -5.98046e-11)

surfaceFieldValue massFlowAtFilter_97 write:
    sum(fz_solid_97) of phi = 0.000154811

volFieldValue volFieldValue_98 write:
    volIntegrate(cz_solid_98) of U = (-3.13321e-10 2.99019e-08 9.35128e-11)

surfaceFieldValue massFlowAtFilter_98 write:
    sum(fz_solid_98) of phi = -9.32284e-05

volFieldValue volFieldValue_99 write:
    volIntegrate(cz_solid_99) of U = (-3.27527e-10 1.42896e-08 2.10984e-10)

surfaceFieldValue massFlowAtFilter_99 write:
    sum(fz_solid_99) of phi = 1.23341e-05

Time = 1041

DILUPBiCG:  Solving for Ux, Initial residual = 9.35902e-08, Final residual = 9.35902e-08, No Iterations 0
DILUPBiCG:  Solving for Uy, Initial residual = 1.01216e-07, Final residual = 1.01216e-07, No Iterations 0
DILUPBiCG:  Solving for Uz, Initial residual = 1.86803e-07, Final residual = 1.86803e-07, No Iterations 0
DICPCG:  Solving for p, Initial residual = 0.00102225, Final residual = 0.000101157, No Iterations 13
DICPCG:  Solving for p, Initial residual = 0.000235882, Final residual = 2.28329e-05, No Iterations 21
DICPCG:  Solving for p, Initial residual = 5.42599e-05, Final residual = 9.6653e-06, No Iterations 20
time step continuity errors : sum local = 6.69607e-05, global = -1.77471e-05, cumulative = 0.000468996
DILUPBiCG:  Solving for epsilon, Initial residual = 0.000717365, Final residual = 4.07668e-07, No Iterations 3
DILUPBiCG:  Solving for k, Initial residual = 0.000854405, Final residual = 4.47072e-07, No Iterations 3
ExecutionTime = 2028.45 s  ClockTime = 2113 s

Time = 1042

DILUPBiCG:  Solving for Ux, Initial residual = 9.33526e-08, Final residual = 9.33526e-08, No Iterations 0
DILUPBiCG:  Solving for Uy, Initial residual = 1.01257e-07, Final residual = 1.01257e-07, No Iterations 0
DILUPBiCG:  Solving for Uz, Initial residual = 1.86127e-07, Final residual = 1.86127e-07, No Iterations 0
DICPCG:  Solving for p, Initial residual = 0.0010185, Final residual = 0.00010183, No Iterations 13
DICPCG:  Solving for p, Initial residual = 0.000234724, Final residual = 2.25152e-05, No Iterations 22
DICPCG:  Solving for p, Initial residual = 5.38305e-05, Final residual = 9.37238e-06, No Iterations 267
time step continuity errors : sum local = 6.49592e-05, global = 3.3936e-07, cumulative = 0.000469335
DILUPBiCG:  Solving for epsilon, Initial residual = 0.000716659, Final residual = 4.09772e-07, No Iterations 3
DILUPBiCG:  Solving for k, Initial residual = 0.000853478, Final residual = 4.46716e-07, No Iterations 3
ExecutionTime = 2031.49 s  ClockTime = 2116 s

Time = 1043

DILUPBiCG:  Solving for Ux, Initial residual = 9.31327e-08, Final residual = 9.31327e-08, No Iterations 0
DILUPBiCG:  Solving for Uy, Initial residual = 1.01321e-07, Final residual = 1.01321e-07, No Iterations 0
DILUPBiCG:  Solving for Uz, Initial residual = 1.85495e-07, Final residual = 1.85495e-07, No Iterations 0
DICPCG:  Solving for p, Initial residual = 0.00102157, Final residual = 9.96196e-05, No Iterations 13
DICPCG:  Solving for p, Initial residual = 0.000233769, Final residual = 2.24854e-05, No Iterations 21
DICPCG:  Solving for p, Initial residual = 5.30609e-05, Final residual = 9.97373e-06, No Iterations 15
time step continuity errors : sum local = 6.92595e-05, global = -9.14696e-06, cumulative = 0.000460188
DILUPBiCG:  Solving for epsilon, Initial residual = 0.000716192, Final residual = 4.079e-07, No Iterations 3
DILUPBiCG:  Solving for k, Initial residual = 0.000852466, Final residual = 4.46321e-07, No Iterations 3
ExecutionTime = 2032.71 s  ClockTime = 2117 s

Time = 1044

DILUPBiCG:  Solving for Ux, Initial residual = 9.28937e-08, Final residual = 9.28937e-08, No Iterations 0
DILUPBiCG:  Solving for Uy, Initial residual = 1.01357e-07, Final residual = 1.01357e-07, No Iterations 0
DILUPBiCG:  Solving for Uz, Initial residual = 1.84789e-07, Final residual = 1.84789e-07, No Iterations 0
DICPCG:  Solving for p, Initial residual = 0.00101823, Final residual = 0.000100436, No Iterations 13
DICPCG:  Solving for p, Initial residual = 0.000233982, Final residual = 2.22915e-05, No Iterations 21
DICPCG:  Solving for p, Initial residual = 5.29152e-05, Final residual = 9.48963e-06, No Iterations 15
time step continuity errors : sum local = 6.59334e-05, global = -5.12665e-06, cumulative = 0.000455062
DILUPBiCG:  Solving for epsilon, Initial residual = 0.000715866, Final residual = 4.09048e-07, No Iterations 3
DILUPBiCG:  Solving for k, Initial residual = 0.000851518, Final residual = 4.45903e-07, No Iterations 3
ExecutionTime = 2033.94 s  ClockTime = 2119 s

Time = 1045

DILUPBiCG:  Solving for Ux, Initial residual = 9.26582e-08, Final residual = 9.26582e-08, No Iterations 0
DILUPBiCG:  Solving for Uy, Initial residual = 1.01395e-07, Final residual = 1.01395e-07, No Iterations 0
DILUPBiCG:  Solving for Uz, Initial residual = 1.84104e-07, Final residual = 1.84104e-07, No Iterations 0
DICPCG:  Solving for p, Initial residual = 0.00101011, Final residual = 0.000100764, No Iterations 13
DICPCG:  Solving for p, Initial residual = 0.000232196, Final residual = 2.30325e-05, No Iterations 21
DICPCG:  Solving for p, Initial residual = 5.29944e-05, Final residual = 8.9967e-06, No Iterations 16
time step continuity errors : sum local = 6.25495e-05, global = -1.33151e-06, cumulative = 0.00045373
DILUPBiCG:  Solving for epsilon, Initial residual = 0.000715136, Final residual = 4.11059e-07, No Iterations 3
DILUPBiCG:  Solving for k, Initial residual = 0.000850597, Final residual = 4.45555e-07, No Iterations 3
ExecutionTime = 2035.17 s  ClockTime = 2120 s

Time = 1046

DILUPBiCG:  Solving for Ux, Initial residual = 9.24292e-08, Final residual = 9.24292e-08, No Iterations 0
DILUPBiCG:  Solving for Uy, Initial residual = 1.01432e-07, Final residual = 1.01432e-07, No Iterations 0
DILUPBiCG:  Solving for Uz, Initial residual = 1.83434e-07, Final residual = 1.83434e-07, No Iterations 0
DICPCG:  Solving for p, Initial residual = 0.00100985, Final residual = 0.000100798, No Iterations 13
DICPCG:  Solving for p, Initial residual = 0.000232705, Final residual = 2.19027e-05, No Iterations 22
DICPCG:  Solving for p, Initial residual = 5.28577e-05, Final residual = 9.31833e-06, No Iterations 16
time step continuity errors : sum local = 6.48384e-05, global = 2.31024e-06, cumulative = 0.00045604
DILUPBiCG:  Solving for epsilon, Initial residual = 0.0007149, Final residual = 4.08843e-07, No Iterations 3
DILUPBiCG:  Solving for k, Initial residual = 0.000849672, Final residual = 4.45264e-07, No Iterations 3
ExecutionTime = 2036.4 s  ClockTime = 2121 s

Time = 1047

DILUPBiCG:  Solving for Ux, Initial residual = 9.22155e-08, Final residual = 9.22155e-08, No Iterations 0
DILUPBiCG:  Solving for Uy, Initial residual = 1.01469e-07, Final residual = 1.01469e-07, No Iterations 0
DILUPBiCG:  Solving for Uz, Initial residual = 1.82786e-07, Final residual = 1.82786e-07, No Iterations 0
DICPCG:  Solving for p, Initial residual = 0.00100347, Final residual = 9.99275e-05, No Iterations 13
DICPCG:  Solving for p, Initial residual = 0.00023182, Final residual = 2.23449e-05, No Iterations 22
DICPCG:  Solving for p, Initial residual = 5.30424e-05, Final residual = 9.76164e-06, No Iterations 17
time step continuity errors : sum local = 6.79866e-05, global = 5.72518e-06, cumulative = 0.000461766
DILUPBiCG:  Solving for epsilon, Initial residual = 0.000714282, Final residual = 4.11696e-07, No Iterations 3
DILUPBiCG:  Solving for k, Initial residual = 0.000848751, Final residual = 4.44893e-07, No Iterations 3
ExecutionTime = 2037.64 s  ClockTime = 2122 s

Time = 1048

DILUPBiCG:  Solving for Ux, Initial residual = 9.20042e-08, Final residual = 9.20042e-08, No Iterations 0
DILUPBiCG:  Solving for Uy, Initial residual = 1.01504e-07, Final residual = 1.01504e-07, No Iterations 0
DILUPBiCG:  Solving for Uz, Initial residual = 1.82133e-07, Final residual = 1.82133e-07, No Iterations 0
DICPCG:  Solving for p, Initial residual = 0.00100101, Final residual = 9.95003e-05, No Iterations 13
DICPCG:  Solving for p, Initial residual = 0.000231992, Final residual = 2.01291e-05, No Iterations 23
DICPCG:  Solving for p, Initial residual = 5.17566e-05, Final residual = 9.51052e-06, No Iterations 57
time step continuity errors : sum local = 6.6305e-05, global = 6.13012e-06, cumulative = 0.000467896
DILUPBiCG:  Solving for epsilon, Initial residual = 0.000713885, Final residual = 4.12159e-07, No Iterations 3
DILUPBiCG:  Solving for k, Initial residual = 0.000847867, Final residual = 4.44485e-07, No Iterations 3
ExecutionTime = 2039.14 s  ClockTime = 2124 s

Time = 1049

DILUPBiCG:  Solving for Ux, Initial residual = 9.18111e-08, Final residual = 9.18111e-08, No Iterations 0
DILUPBiCG:  Solving for Uy, Initial residual = 1.01539e-07, Final residual = 1.01539e-07, No Iterations 0
DILUPBiCG:  Solving for Uz, Initial residual = 1.81488e-07, Final residual = 1.81488e-07, No Iterations 0
DICPCG:  Solving for p, Initial residual = 0.00100455, Final residual = 9.53235e-05, No Iterations 13
DICPCG:  Solving for p, Initial residual = 0.000229027, Final residual = 2.21968e-05, No Iterations 22
DICPCG:  Solving for p, Initial residual = 5.24562e-05, Final residual = 9.74973e-06, No Iterations 17
time step continuity errors : sum local = 6.80564e-05, global = 1.14628e-05, cumulative = 0.000479359
DILUPBiCG:  Solving for epsilon, Initial residual = 0.000713608, Final residual = 4.11262e-07, No Iterations 3
DILUPBiCG:  Solving for k, Initial residual = 0.000847012, Final residual = 4.44137e-07, No Iterations 3
ExecutionTime = 2040.39 s  ClockTime = 2125 s

Time = 1050

DILUPBiCG:  Solving for Ux, Initial residual = 9.1606e-08, Final residual = 9.1606e-08, No Iterations 0
DILUPBiCG:  Solving for Uy, Initial residual = 1.01574e-07, Final residual = 1.01574e-07, No Iterations 0
DILUPBiCG:  Solving for Uz, Initial residual = 1.80835e-07, Final residual = 1.80835e-07, No Iterations 0
DICPCG:  Solving for p, Initial residual = 0.000998818, Final residual = 9.62186e-05, No Iterations 13
DICPCG:  Solving for p, Initial residual = 0.000228918, Final residual = 2.2368e-05, No Iterations 22
DICPCG:  Solving for p, Initial residual = 5.26654e-05, Final residual = 9.86674e-06, No Iterations 61
time step continuity errors : sum local = 6.88808e-05, global = 1.07597e-05, cumulative = 0.000490118
DILUPBiCG:  Solving for epsilon, Initial residual = 0.000713242, Final residual = 4.13377e-07, No Iterations 3
DILUPBiCG:  Solving for k, Initial residual = 0.000846214, Final residual = 4.43803e-07, No Iterations 3
ExecutionTime = 2041.92 s  ClockTime = 2127 s


SIMPLE solution converged in 1050 iterations

End

Finalising parallel run
