/*---------------------------------------------------------------------------*\
  =========                 |
  \\      /  F ield         | OpenFOAM: The Open Source CFD Toolbox
   \\    /   O peration     | Website:  https://openfoam.org
    \\  /    A nd           | Version:  6
     \\/     M anipulation  |
\*---------------------------------------------------------------------------*/
Build  : 6
Exec   : bouSimpleFoam -parallel
Date   : Aug 07 2020
Time   : 01:05:27
Host   : "emps-ugcs2"
PID    : 24297
I/O    : uncollated
Case   : /home/links/jjw230/Optimisation_second_draft/Case6
nProcs : 4
Slaves : 
3
(
"emps-ugcs2.24298"
"emps-ugcs2.24299"
"emps-ugcs2.24300"
)

Pstream initialized with:
    floatTransfer      : 0
    nProcsSimpleSum    : 0
    commsType          : nonBlocking
    polling iterations : 0
sigFpe : Enabling floating point exception trapping (FOAM_SIGFPE).
fileModificationChecking : Monitoring run-time modified files using timeStampMaster (fileModificationSkew 10)
allowSystemOperations : Allowing user-supplied system call operations

// * * * * * * * * * * * * * * * * * * * * * * * * * * * * * * * * * * * * * //
Create time

Create mesh for time = 0


SIMPLE: Convergence criteria found
        p: tolerance 0.001
        U: tolerance 0.001
        "(k|epsilon)": tolerance 0.001
        theta: tolerance 0.001

Reading field p

Reading field U

Reading field theta

Reading/calculating face flux field phi

Selecting incompressible transport model Newtonian
Selecting turbulence model type RAS
Selecting RAS turbulence model RNGkEpsilon
RAS
{
    RASModel        RNGkEpsilon;
    turbulence      on;
    printCoeffs     on;
    Cmu             0.0845;
    C1              1.42;
    C2              1.68;
    C3              0;
    sigmak          0.71942;
    sigmaEps        0.71942;
    eta0            4.38;
    beta            0.012;
}

No MRF models present

Creating finite volume options from "system/fvOptions"

Selecting finite volume options model type explicitPorositySource
    Source: source0
    - selecting cells using cellZone cz_solid_0
    - selected 2072 cell(s) with volume 0.00214205
Porosity region source0:
    selecting model: DarcyForchheimer
    creating porous zone: cz_solid_0
Selecting finite volume options model type explicitPorositySource
    Source: source1
    - selecting cells using cellZone cz_solid_1
    - selected 2082 cell(s) with volume 0.00214493
Porosity region source1:
    selecting model: DarcyForchheimer
    creating porous zone: cz_solid_1
Selecting finite volume options model type explicitPorositySource
    Source: source2
    - selecting cells using cellZone cz_solid_2
    - selected 2030 cell(s) with volume 0.00214182
Porosity region source2:
    selecting model: DarcyForchheimer
    creating porous zone: cz_solid_2
Selecting finite volume options model type explicitPorositySource
    Source: source3
    - selecting cells using cellZone cz_solid_3
    - selected 1925 cell(s) with volume 0.00214378
Porosity region source3:
    selecting model: DarcyForchheimer
    creating porous zone: cz_solid_3
Selecting finite volume options model type explicitPorositySource
    Source: source4
    - selecting cells using cellZone cz_solid_4
    - selected 1344 cell(s) with volume 0.0021392
Porosity region source4:
    selecting model: DarcyForchheimer
    creating porous zone: cz_solid_4
Selecting finite volume options model type explicitPorositySource
    Source: source5
    - selecting cells using cellZone cz_solid_5
    - selected 2044 cell(s) with volume 0.00214212
Porosity region source5:
    selecting model: DarcyForchheimer
    creating porous zone: cz_solid_5
Selecting finite volume options model type explicitPorositySource
    Source: source6
    - selecting cells using cellZone cz_solid_6
    - selected 1960 cell(s) with volume 0.00214348
Porosity region source6:
    selecting model: DarcyForchheimer
    creating porous zone: cz_solid_6
Selecting finite volume options model type explicitPorositySource
    Source: source7
    - selecting cells using cellZone cz_solid_7
    - selected 2027 cell(s) with volume 0.00214437
Porosity region source7:
    selecting model: DarcyForchheimer
    creating porous zone: cz_solid_7
Selecting finite volume options model type explicitPorositySource
    Source: source8
    - selecting cells using cellZone cz_solid_8
    - selected 1456 cell(s) with volume 0.00213942
Porosity region source8:
    selecting model: DarcyForchheimer
    creating porous zone: cz_solid_8
Selecting finite volume options model type explicitPorositySource
    Source: source9
    - selecting cells using cellZone cz_solid_9
    - selected 2016 cell(s) with volume 0.00214427
Porosity region source9:
    selecting model: DarcyForchheimer
    creating porous zone: cz_solid_9
Selecting finite volume options model type explicitPorositySource
    Source: source10
    - selecting cells using cellZone cz_solid_10
    - selected 2017 cell(s) with volume 0.00214458
Porosity region source10:
    selecting model: DarcyForchheimer
    creating porous zone: cz_solid_10
Selecting finite volume options model type explicitPorositySource
    Source: source11
    - selecting cells using cellZone cz_solid_11
    - selected 2072 cell(s) with volume 0.0021414
Porosity region source11:
    selecting model: DarcyForchheimer
    creating porous zone: cz_solid_11
Selecting finite volume options model type explicitPorositySource
    Source: source12
    - selecting cells using cellZone cz_solid_12
    - selected 2149 cell(s) with volume 0.0021446
Porosity region source12:
    selecting model: DarcyForchheimer
    creating porous zone: cz_solid_12
Selecting finite volume options model type explicitPorositySource
    Source: source13
    - selecting cells using cellZone cz_solid_13
    - selected 1797 cell(s) with volume 0.00214264
Porosity region source13:
    selecting model: DarcyForchheimer
    creating porous zone: cz_solid_13
Selecting finite volume options model type explicitPorositySource
    Source: source14
    - selecting cells using cellZone cz_solid_14
    - selected 1915 cell(s) with volume 0.00214549
Porosity region source14:
    selecting model: DarcyForchheimer
    creating porous zone: cz_solid_14
Selecting finite volume options model type explicitPorositySource
    Source: source15
    - selecting cells using cellZone cz_solid_15
    - selected 1938 cell(s) with volume 0.00214273
Porosity region source15:
    selecting model: DarcyForchheimer
    creating porous zone: cz_solid_15
Selecting finite volume options model type explicitPorositySource
    Source: source16
    - selecting cells using cellZone cz_solid_16
    - selected 1789 cell(s) with volume 0.00214185
Porosity region source16:
    selecting model: DarcyForchheimer
    creating porous zone: cz_solid_16
Selecting finite volume options model type explicitPorositySource
    Source: source17
    - selecting cells using cellZone cz_solid_17
    - selected 1906 cell(s) with volume 0.00213752
Porosity region source17:
    selecting model: DarcyForchheimer
    creating porous zone: cz_solid_17
Selecting finite volume options model type explicitPorositySource
    Source: source18
    - selecting cells using cellZone cz_solid_18
    - selected 1915 cell(s) with volume 0.00214489
Porosity region source18:
    selecting model: DarcyForchheimer
    creating porous zone: cz_solid_18
Selecting finite volume options model type explicitPorositySource
    Source: source19
    - selecting cells using cellZone cz_solid_19
    - selected 1918 cell(s) with volume 0.00214442
Porosity region source19:
    selecting model: DarcyForchheimer
    creating porous zone: cz_solid_19
Selecting finite volume options model type explicitPorositySource
    Source: source20
    - selecting cells using cellZone cz_solid_20
    - selected 2192 cell(s) with volume 0.00214221
Porosity region source20:
    selecting model: DarcyForchheimer
    creating porous zone: cz_solid_20
Selecting finite volume options model type explicitPorositySource
    Source: source21
    - selecting cells using cellZone cz_solid_21
    - selected 2192 cell(s) with volume 0.00214396
Porosity region source21:
    selecting model: DarcyForchheimer
    creating porous zone: cz_solid_21
Selecting finite volume options model type explicitPorositySource
    Source: source22
    - selecting cells using cellZone cz_solid_22
    - selected 2150 cell(s) with volume 0.00214202
Porosity region source22:
    selecting model: DarcyForchheimer
    creating porous zone: cz_solid_22
Selecting finite volume options model type explicitPorositySource
    Source: source23
    - selecting cells using cellZone cz_solid_23
    - selected 2044 cell(s) with volume 0.0021438
Porosity region source23:
    selecting model: DarcyForchheimer
    creating porous zone: cz_solid_23
Selecting finite volume options model type explicitPorositySource
    Source: source24
    - selecting cells using cellZone cz_solid_24
    - selected 1436 cell(s) with volume 0.00213915
Porosity region source24:
    selecting model: DarcyForchheimer
    creating porous zone: cz_solid_24
Selecting finite volume options model type explicitPorositySource
    Source: source25
    - selecting cells using cellZone cz_solid_25
    - selected 2136 cell(s) with volume 0.00214233
Porosity region source25:
    selecting model: DarcyForchheimer
    creating porous zone: cz_solid_25
Selecting finite volume options model type explicitPorositySource
    Source: source26
    - selecting cells using cellZone cz_solid_26
    - selected 2080 cell(s) with volume 0.00214361
Porosity region source26:
    selecting model: DarcyForchheimer
    creating porous zone: cz_solid_26
Selecting finite volume options model type explicitPorositySource
    Source: source27
    - selecting cells using cellZone cz_solid_27
    - selected 2122 cell(s) with volume 0.00214401
Porosity region source27:
    selecting model: DarcyForchheimer
    creating porous zone: cz_solid_27
Selecting finite volume options model type explicitPorositySource
    Source: source28
    - selecting cells using cellZone cz_solid_28
    - selected 1548 cell(s) with volume 0.00213963
Porosity region source28:
    selecting model: DarcyForchheimer
    creating porous zone: cz_solid_28
Selecting finite volume options model type explicitPorositySource
    Source: source29
    - selecting cells using cellZone cz_solid_29
    - selected 2080 cell(s) with volume 0.00214399
Porosity region source29:
    selecting model: DarcyForchheimer
    creating porous zone: cz_solid_29
Selecting finite volume options model type explicitPorositySource
    Source: source30
    - selecting cells using cellZone cz_solid_30
    - selected 2114 cell(s) with volume 0.00214505
Porosity region source30:
    selecting model: DarcyForchheimer
    creating porous zone: cz_solid_30
Selecting finite volume options model type explicitPorositySource
    Source: source31
    - selecting cells using cellZone cz_solid_31
    - selected 2192 cell(s) with volume 0.00214142
Porosity region source31:
    selecting model: DarcyForchheimer
    creating porous zone: cz_solid_31
Selecting finite volume options model type explicitPorositySource
    Source: source32
    - selecting cells using cellZone cz_solid_32
    - selected 2268 cell(s) with volume 0.00214497
Porosity region source32:
    selecting model: DarcyForchheimer
    creating porous zone: cz_solid_32
Selecting finite volume options model type explicitPorositySource
    Source: source33
    - selecting cells using cellZone cz_solid_33
    - selected 1858 cell(s) with volume 0.00214275
Porosity region source33:
    selecting model: DarcyForchheimer
    creating porous zone: cz_solid_33
Selecting finite volume options model type explicitPorositySource
    Source: source34
    - selecting cells using cellZone cz_solid_34
    - selected 1994 cell(s) with volume 0.00214522
Porosity region source34:
    selecting model: DarcyForchheimer
    creating porous zone: cz_solid_34
Selecting finite volume options model type explicitPorositySource
    Source: source35
    - selecting cells using cellZone cz_solid_35
    - selected 2080 cell(s) with volume 0.00214325
Porosity region source35:
    selecting model: DarcyForchheimer
    creating porous zone: cz_solid_35
Selecting finite volume options model type explicitPorositySource
    Source: source36
    - selecting cells using cellZone cz_solid_36
    - selected 1858 cell(s) with volume 0.00214236
Porosity region source36:
    selecting model: DarcyForchheimer
    creating porous zone: cz_solid_36
Selecting finite volume options model type explicitPorositySource
    Source: source37
    - selecting cells using cellZone cz_solid_37
    - selected 2022 cell(s) with volume 0.00213949
Porosity region source37:
    selecting model: DarcyForchheimer
    creating porous zone: cz_solid_37
Selecting finite volume options model type explicitPorositySource
    Source: source38
    - selecting cells using cellZone cz_solid_38
    - selected 1978 cell(s) with volume 0.00214518
Porosity region source38:
    selecting model: DarcyForchheimer
    creating porous zone: cz_solid_38
Selecting finite volume options model type explicitPorositySource
    Source: source39
    - selecting cells using cellZone cz_solid_39
    - selected 2010 cell(s) with volume 0.00214509
Porosity region source39:
    selecting model: DarcyForchheimer
    creating porous zone: cz_solid_39
Selecting finite volume options model type explicitPorositySource
    Source: source40
    - selecting cells using cellZone cz_solid_40
    - selected 2072 cell(s) with volume 0.00214203
Porosity region source40:
    selecting model: DarcyForchheimer
    creating porous zone: cz_solid_40
Selecting finite volume options model type explicitPorositySource
    Source: source41
    - selecting cells using cellZone cz_solid_41
    - selected 2100 cell(s) with volume 0.00214373
Porosity region source41:
    selecting model: DarcyForchheimer
    creating porous zone: cz_solid_41
Selecting finite volume options model type explicitPorositySource
    Source: source42
    - selecting cells using cellZone cz_solid_42
    - selected 2030 cell(s) with volume 0.00214187
Porosity region source42:
    selecting model: DarcyForchheimer
    creating porous zone: cz_solid_42
Selecting finite volume options model type explicitPorositySource
    Source: source43
    - selecting cells using cellZone cz_solid_43
    - selected 1925 cell(s) with volume 0.00214351
Porosity region source43:
    selecting model: DarcyForchheimer
    creating porous zone: cz_solid_43
Selecting finite volume options model type explicitPorositySource
    Source: source44
    - selecting cells using cellZone cz_solid_44
    - selected 1344 cell(s) with volume 0.00213921
Porosity region source44:
    selecting model: DarcyForchheimer
    creating porous zone: cz_solid_44
Selecting finite volume options model type explicitPorositySource
    Source: source45
    - selecting cells using cellZone cz_solid_45
    - selected 2044 cell(s) with volume 0.00214222
Porosity region source45:
    selecting model: DarcyForchheimer
    creating porous zone: cz_solid_45
Selecting finite volume options model type explicitPorositySource
    Source: source46
    - selecting cells using cellZone cz_solid_46
    - selected 1960 cell(s) with volume 0.00214351
Porosity region source46:
    selecting model: DarcyForchheimer
    creating porous zone: cz_solid_46
Selecting finite volume options model type explicitPorositySource
    Source: source47
    - selecting cells using cellZone cz_solid_47
    - selected 2030 cell(s) with volume 0.00214394
Porosity region source47:
    selecting model: DarcyForchheimer
    creating porous zone: cz_solid_47
Selecting finite volume options model type explicitPorositySource
    Source: source48
    - selecting cells using cellZone cz_solid_48
    - selected 1456 cell(s) with volume 0.00213942
Porosity region source48:
    selecting model: DarcyForchheimer
    creating porous zone: cz_solid_48
Selecting finite volume options model type explicitPorositySource
    Source: source49
    - selecting cells using cellZone cz_solid_49
    - selected 1960 cell(s) with volume 0.00214374
Porosity region source49:
    selecting model: DarcyForchheimer
    creating porous zone: cz_solid_49
Selecting finite volume options model type explicitPorositySource
    Source: source50
    - selecting cells using cellZone cz_solid_50
    - selected 1993 cell(s) with volume 0.00214494
Porosity region source50:
    selecting model: DarcyForchheimer
    creating porous zone: cz_solid_50
Selecting finite volume options model type explicitPorositySource
    Source: source51
    - selecting cells using cellZone cz_solid_51
    - selected 2072 cell(s) with volume 0.00214134
Porosity region source51:
    selecting model: DarcyForchheimer
    creating porous zone: cz_solid_51
Selecting finite volume options model type explicitPorositySource
    Source: source52
    - selecting cells using cellZone cz_solid_52
    - selected 2149 cell(s) with volume 0.0021447
Porosity region source52:
    selecting model: DarcyForchheimer
    creating porous zone: cz_solid_52
Selecting finite volume options model type explicitPorositySource
    Source: source53
    - selecting cells using cellZone cz_solid_53
    - selected 1801 cell(s) with volume 0.00214258
Porosity region source53:
    selecting model: DarcyForchheimer
    creating porous zone: cz_solid_53
Selecting finite volume options model type explicitPorositySource
    Source: source54
    - selecting cells using cellZone cz_solid_54
    - selected 1894 cell(s) with volume 0.00214495
Porosity region source54:
    selecting model: DarcyForchheimer
    creating porous zone: cz_solid_54
Selecting finite volume options model type explicitPorositySource
    Source: source55
    - selecting cells using cellZone cz_solid_55
    - selected 1938 cell(s) with volume 0.00214276
Porosity region source55:
    selecting model: DarcyForchheimer
    creating porous zone: cz_solid_55
Selecting finite volume options model type explicitPorositySource
    Source: source56
    - selecting cells using cellZone cz_solid_56
    - selected 1793 cell(s) with volume 0.00214231
Porosity region source56:
    selecting model: DarcyForchheimer
    creating porous zone: cz_solid_56
Selecting finite volume options model type explicitPorositySource
    Source: source57
    - selecting cells using cellZone cz_solid_57
    - selected 1896 cell(s) with volume 0.00213786
Porosity region source57:
    selecting model: DarcyForchheimer
    creating porous zone: cz_solid_57
Selecting finite volume options model type explicitPorositySource
    Source: source58
    - selecting cells using cellZone cz_solid_58
    - selected 1894 cell(s) with volume 0.00214467
Porosity region source58:
    selecting model: DarcyForchheimer
    creating porous zone: cz_solid_58
Selecting finite volume options model type explicitPorositySource
    Source: source59
    - selecting cells using cellZone cz_solid_59
    - selected 1918 cell(s) with volume 0.00214462
Porosity region source59:
    selecting model: DarcyForchheimer
    creating porous zone: cz_solid_59
Selecting finite volume options model type explicitPorositySource
    Source: source60
    - selecting cells using cellZone cz_solid_60
    - selected 2100 cell(s) with volume 0.00214191
Porosity region source60:
    selecting model: DarcyForchheimer
    creating porous zone: cz_solid_60
Selecting finite volume options model type explicitPorositySource
    Source: source61
    - selecting cells using cellZone cz_solid_61
    - selected 2100 cell(s) with volume 0.00214374
Porosity region source61:
    selecting model: DarcyForchheimer
    creating porous zone: cz_solid_61
Selecting finite volume options model type explicitPorositySource
    Source: source62
    - selecting cells using cellZone cz_solid_62
    - selected 2058 cell(s) with volume 0.00214161
Porosity region source62:
    selecting model: DarcyForchheimer
    creating porous zone: cz_solid_62
Selecting finite volume options model type explicitPorositySource
    Source: source63
    - selecting cells using cellZone cz_solid_63
    - selected 1946 cell(s) with volume 0.00214341
Porosity region source63:
    selecting model: DarcyForchheimer
    creating porous zone: cz_solid_63
Selecting finite volume options model type explicitPorositySource
    Source: source64
    - selecting cells using cellZone cz_solid_64
    - selected 1322 cell(s) with volume 0.00213891
Porosity region source64:
    selecting model: DarcyForchheimer
    creating porous zone: cz_solid_64
Selecting finite volume options model type explicitPorositySource
    Source: source65
    - selecting cells using cellZone cz_solid_65
    - selected 2044 cell(s) with volume 0.00214205
Porosity region source65:
    selecting model: DarcyForchheimer
    creating porous zone: cz_solid_65
Selecting finite volume options model type explicitPorositySource
    Source: source66
    - selecting cells using cellZone cz_solid_66
    - selected 1988 cell(s) with volume 0.00214334
Porosity region source66:
    selecting model: DarcyForchheimer
    creating porous zone: cz_solid_66
Selecting finite volume options model type explicitPorositySource
    Source: source67
    - selecting cells using cellZone cz_solid_67
    - selected 2037 cell(s) with volume 0.00214362
Porosity region source67:
    selecting model: DarcyForchheimer
    creating porous zone: cz_solid_67
Selecting finite volume options model type explicitPorositySource
    Source: source68
    - selecting cells using cellZone cz_solid_68
    - selected 1434 cell(s) with volume 0.00213959
Porosity region source68:
    selecting model: DarcyForchheimer
    creating porous zone: cz_solid_68
Selecting finite volume options model type explicitPorositySource
    Source: source69
    - selecting cells using cellZone cz_solid_69
    - selected 2016 cell(s) with volume 0.00214372
Porosity region source69:
    selecting model: DarcyForchheimer
    creating porous zone: cz_solid_69
Selecting finite volume options model type explicitPorositySource
    Source: source70
    - selecting cells using cellZone cz_solid_70
    - selected 2028 cell(s) with volume 0.00214488
Porosity region source70:
    selecting model: DarcyForchheimer
    creating porous zone: cz_solid_70
Selecting finite volume options model type explicitPorositySource
    Source: source71
    - selecting cells using cellZone cz_solid_71
    - selected 2093 cell(s) with volume 0.00214131
Porosity region source71:
    selecting model: DarcyForchheimer
    creating porous zone: cz_solid_71
Selecting finite volume options model type explicitPorositySource
    Source: source72
    - selecting cells using cellZone cz_solid_72
    - selected 2170 cell(s) with volume 0.00214461
Porosity region source72:
    selecting model: DarcyForchheimer
    creating porous zone: cz_solid_72
Selecting finite volume options model type explicitPorositySource
    Source: source73
    - selecting cells using cellZone cz_solid_73
    - selected 1781 cell(s) with volume 0.00214206
Porosity region source73:
    selecting model: DarcyForchheimer
    creating porous zone: cz_solid_73
Selecting finite volume options model type explicitPorositySource
    Source: source74
    - selecting cells using cellZone cz_solid_74
    - selected 1907 cell(s) with volume 0.00214487
Porosity region source74:
    selecting model: DarcyForchheimer
    creating porous zone: cz_solid_74
Selecting finite volume options model type explicitPorositySource
    Source: source75
    - selecting cells using cellZone cz_solid_75
    - selected 1988 cell(s) with volume 0.00214293
Porosity region source75:
    selecting model: DarcyForchheimer
    creating porous zone: cz_solid_75
Selecting finite volume options model type explicitPorositySource
    Source: source76
    - selecting cells using cellZone cz_solid_76
    - selected 1781 cell(s) with volume 0.00214213
Porosity region source76:
    selecting model: DarcyForchheimer
    creating porous zone: cz_solid_76
Selecting finite volume options model type explicitPorositySource
    Source: source77
    - selecting cells using cellZone cz_solid_77
    - selected 1872 cell(s) with volume 0.00213836
Porosity region source77:
    selecting model: DarcyForchheimer
    creating porous zone: cz_solid_77
Selecting finite volume options model type explicitPorositySource
    Source: source78
    - selecting cells using cellZone cz_solid_78
    - selected 1900 cell(s) with volume 0.0021444
Porosity region source78:
    selecting model: DarcyForchheimer
    creating porous zone: cz_solid_78
Selecting finite volume options model type explicitPorositySource
    Source: source79
    - selecting cells using cellZone cz_solid_79
    - selected 1925 cell(s) with volume 0.00214437
Porosity region source79:
    selecting model: DarcyForchheimer
    creating porous zone: cz_solid_79
Selecting finite volume options model type explicitPorositySource
    Source: source80
    - selecting cells using cellZone cz_solid_80
    - selected 2123 cell(s) with volume 0.00214163
Porosity region source80:
    selecting model: DarcyForchheimer
    creating porous zone: cz_solid_80
Selecting finite volume options model type explicitPorositySource
    Source: source81
    - selecting cells using cellZone cz_solid_81
    - selected 2123 cell(s) with volume 0.0021437
Porosity region source81:
    selecting model: DarcyForchheimer
    creating porous zone: cz_solid_81
Selecting finite volume options model type explicitPorositySource
    Source: source82
    - selecting cells using cellZone cz_solid_82
    - selected 2084 cell(s) with volume 0.00214148
Porosity region source82:
    selecting model: DarcyForchheimer
    creating porous zone: cz_solid_82
Selecting finite volume options model type explicitPorositySource
    Source: source83
    - selecting cells using cellZone cz_solid_83
    - selected 1976 cell(s) with volume 0.00214323
Porosity region source83:
    selecting model: DarcyForchheimer
    creating porous zone: cz_solid_83
Selecting finite volume options model type explicitPorositySource
    Source: source84
    - selecting cells using cellZone cz_solid_84
    - selected 1400 cell(s) with volume 0.00213963
Porosity region source84:
    selecting model: DarcyForchheimer
    creating porous zone: cz_solid_84
Selecting finite volume options model type explicitPorositySource
    Source: source85
    - selecting cells using cellZone cz_solid_85
    - selected 2036 cell(s) with volume 0.00214191
Porosity region source85:
    selecting model: DarcyForchheimer
    creating porous zone: cz_solid_85
Selecting finite volume options model type explicitPorositySource
    Source: source86
    - selecting cells using cellZone cz_solid_86
    - selected 2025 cell(s) with volume 0.00214316
Porosity region source86:
    selecting model: DarcyForchheimer
    creating porous zone: cz_solid_86
Selecting finite volume options model type explicitPorositySource
    Source: source87
    - selecting cells using cellZone cz_solid_87
    - selected 2069 cell(s) with volume 0.00214354
Porosity region source87:
    selecting model: DarcyForchheimer
    creating porous zone: cz_solid_87
Selecting finite volume options model type explicitPorositySource
    Source: source88
    - selecting cells using cellZone cz_solid_88
    - selected 1505 cell(s) with volume 0.00213986
Porosity region source88:
    selecting model: DarcyForchheimer
    creating porous zone: cz_solid_88
Selecting finite volume options model type explicitPorositySource
    Source: source89
    - selecting cells using cellZone cz_solid_89
    - selected 2053 cell(s) with volume 0.00214325
Porosity region source89:
    selecting model: DarcyForchheimer
    creating porous zone: cz_solid_89
Selecting finite volume options model type explicitPorositySource
    Source: source90
    - selecting cells using cellZone cz_solid_90
    - selected 2054 cell(s) with volume 0.00214466
Porosity region source90:
    selecting model: DarcyForchheimer
    creating porous zone: cz_solid_90
Selecting finite volume options model type explicitPorositySource
    Source: source91
    - selecting cells using cellZone cz_solid_91
    - selected 2116 cell(s) with volume 0.00214119
Porosity region source91:
    selecting model: DarcyForchheimer
    creating porous zone: cz_solid_91
Selecting finite volume options model type explicitPorositySource
    Source: source92
    - selecting cells using cellZone cz_solid_92
    - selected 2186 cell(s) with volume 0.0021445
Porosity region source92:
    selecting model: DarcyForchheimer
    creating porous zone: cz_solid_92
Selecting finite volume options model type explicitPorositySource
    Source: source93
    - selecting cells using cellZone cz_solid_93
    - selected 1800 cell(s) with volume 0.00214263
Porosity region source93:
    selecting model: DarcyForchheimer
    creating porous zone: cz_solid_93
Selecting finite volume options model type explicitPorositySource
    Source: source94
    - selecting cells using cellZone cz_solid_94
    - selected 1916 cell(s) with volume 0.00214472
Porosity region source94:
    selecting model: DarcyForchheimer
    creating porous zone: cz_solid_94
Selecting finite volume options model type explicitPorositySource
    Source: source95
    - selecting cells using cellZone cz_solid_95
    - selected 2014 cell(s) with volume 0.0021428
Porosity region source95:
    selecting model: DarcyForchheimer
    creating porous zone: cz_solid_95
Selecting finite volume options model type explicitPorositySource
    Source: source96
    - selecting cells using cellZone cz_solid_96
    - selected 1800 cell(s) with volume 0.00214173
Porosity region source96:
    selecting model: DarcyForchheimer
    creating porous zone: cz_solid_96
Selecting finite volume options model type explicitPorositySource
    Source: source97
    - selecting cells using cellZone cz_solid_97
    - selected 1902 cell(s) with volume 0.00213751
Porosity region source97:
    selecting model: DarcyForchheimer
    creating porous zone: cz_solid_97
Selecting finite volume options model type explicitPorositySource
    Source: source98
    - selecting cells using cellZone cz_solid_98
    - selected 1930 cell(s) with volume 0.00214458
Porosity region source98:
    selecting model: DarcyForchheimer
    creating porous zone: cz_solid_98
Selecting finite volume options model type explicitPorositySource
    Source: source99
    - selecting cells using cellZone cz_solid_99
    - selected 1937 cell(s) with volume 0.00214464
Porosity region source99:
    selecting model: DarcyForchheimer
    creating porous zone: cz_solid_99

Starting time loop

forces porousforces:
--> FOAM Warning : 
    From function Foam::labelHashSet Foam::polyBoundaryMesh::patchSet(const Foam::UList<Foam::wordRe>&, bool, bool) const
    in file meshes/polyMesh/polyBoundaryMesh/polyBoundaryMesh.C at line 798
    Cannot find any patch or group names matching solid_to_fluid
    Including porosity effects


surfaceFieldValue massFlowAtFilter_0:
    total faces  = 1654
    total area   = 0.10168




surfaceFieldValue massFlowAtFilter_1:
    total faces  = 1722
    total area   = 0.101648




surfaceFieldValue massFlowAtFilter_2:
    total faces  = 1616
    total area   = 0.101678




surfaceFieldValue massFlowAtFilter_3:
    total faces  = 1674
    total area   = 0.101746




surfaceFieldValue massFlowAtFilter_4:
    total faces  = 1414
    total area   = 0.101634




surfaceFieldValue massFlowAtFilter_5:
    total faces  = 1618
    total area   = 0.101692




surfaceFieldValue massFlowAtFilter_6:
    total faces  = 1676
    total area   = 0.101742




surfaceFieldValue massFlowAtFilter_7:
    total faces  = 1641
    total area   = 0.101663




surfaceFieldValue massFlowAtFilter_8:
    total faces  = 1414
    total area   = 0.101648




surfaceFieldValue massFlowAtFilter_9:
    total faces  = 1700
    total area   = 0.101774




surfaceFieldValue massFlowAtFilter_10:
    total faces  = 1732
    total area   = 0.101667




surfaceFieldValue massFlowAtFilter_11:
    total faces  = 1724
    total area   = 0.101632




surfaceFieldValue massFlowAtFilter_12:
    total faces  = 1722
    total area   = 0.101668




surfaceFieldValue massFlowAtFilter_13:
    total faces  = 1610
    total area   = 0.10171




surfaceFieldValue massFlowAtFilter_14:
    total faces  = 1729
    total area   = 0.101698




surfaceFieldValue massFlowAtFilter_15:
    total faces  = 1648
    total area   = 0.10165




surfaceFieldValue massFlowAtFilter_16:
    total faces  = 1604
    total area   = 0.1017




surfaceFieldValue massFlowAtFilter_17:
    total faces  = 1552
    total area   = 0.101647




surfaceFieldValue massFlowAtFilter_18:
    total faces  = 1725
    total area   = 0.1017




surfaceFieldValue massFlowAtFilter_19:
    total faces  = 1646
    total area   = 0.101711




surfaceFieldValue massFlowAtFilter_20:
    total faces  = 1696
    total area   = 0.10165




surfaceFieldValue massFlowAtFilter_21:
    total faces  = 1768
    total area   = 0.101624




surfaceFieldValue massFlowAtFilter_22:
    total faces  = 1658
    total area   = 0.101645




surfaceFieldValue massFlowAtFilter_23:
    total faces  = 1718
    total area   = 0.10165




surfaceFieldValue massFlowAtFilter_24:
    total faces  = 1460
    total area   = 0.101583




surfaceFieldValue massFlowAtFilter_25:
    total faces  = 1660
    total area   = 0.101655




surfaceFieldValue massFlowAtFilter_26:
    total faces  = 1720
    total area   = 0.101693




surfaceFieldValue massFlowAtFilter_27:
    total faces  = 1680
    total area   = 0.101617




surfaceFieldValue massFlowAtFilter_28:
    total faces  = 1460
    total area   = 0.10159




surfaceFieldValue massFlowAtFilter_29:
    total faces  = 1720
    total area   = 0.101703




surfaceFieldValue massFlowAtFilter_30:
    total faces  = 1784
    total area   = 0.101627




surfaceFieldValue massFlowAtFilter_31:
    total faces  = 1768
    total area   = 0.101632




surfaceFieldValue massFlowAtFilter_32:
    total faces  = 1766
    total area   = 0.101621




surfaceFieldValue massFlowAtFilter_33:
    total faces  = 1636
    total area   = 0.101689




surfaceFieldValue massFlowAtFilter_34:
    total faces  = 1782
    total area   = 0.101622




surfaceFieldValue massFlowAtFilter_35:
    total faces  = 1698
    total area   = 0.101615




surfaceFieldValue massFlowAtFilter_36:
    total faces  = 1636
    total area   = 0.101689




surfaceFieldValue massFlowAtFilter_37:
    total faces  = 1600
    total area   = 0.101634




surfaceFieldValue massFlowAtFilter_38:
    total faces  = 1778
    total area   = 0.101671




surfaceFieldValue massFlowAtFilter_39:
    total faces  = 1690
    total area   = 0.101665




surfaceFieldValue massFlowAtFilter_40:
    total faces  = 1654
    total area   = 0.101696




surfaceFieldValue massFlowAtFilter_41:
    total faces  = 1724
    total area   = 0.101681




surfaceFieldValue massFlowAtFilter_42:
    total faces  = 1616
    total area   = 0.101693




surfaceFieldValue massFlowAtFilter_43:
    total faces  = 1674
    total area   = 0.101779




surfaceFieldValue massFlowAtFilter_44:
    total faces  = 1414
    total area   = 0.101642




surfaceFieldValue massFlowAtFilter_45:
    total faces  = 1618
    total area   = 0.101701




surfaceFieldValue massFlowAtFilter_46:
    total faces  = 1676
    total area   = 0.101784




surfaceFieldValue massFlowAtFilter_47:
    total faces  = 1636
    total area   = 0.101699




surfaceFieldValue massFlowAtFilter_48:
    total faces  = 1414
    total area   = 0.101655




surfaceFieldValue massFlowAtFilter_49:
    total faces  = 1676
    total area   = 0.101772




surfaceFieldValue massFlowAtFilter_50:
    total faces  = 1740
    total area   = 0.101711




surfaceFieldValue massFlowAtFilter_51:
    total faces  = 1724
    total area   = 0.101702




surfaceFieldValue massFlowAtFilter_52:
    total faces  = 1722
    total area   = 0.101702




surfaceFieldValue massFlowAtFilter_53:
    total faces  = 1610
    total area   = 0.101744




surfaceFieldValue massFlowAtFilter_54:
    total faces  = 1736
    total area   = 0.101708




surfaceFieldValue massFlowAtFilter_55:
    total faces  = 1648
    total area   = 0.101697




surfaceFieldValue massFlowAtFilter_56:
    total faces  = 1604
    total area   = 0.101739




surfaceFieldValue massFlowAtFilter_57:
    total faces  = 1536
    total area   = 0.101681




surfaceFieldValue massFlowAtFilter_58:
    total faces  = 1732
    total area   = 0.101741




surfaceFieldValue massFlowAtFilter_59:
    total faces  = 1646
    total area   = 0.101731




surfaceFieldValue massFlowAtFilter_60:
    total faces  = 1654
    total area   = 0.1017




surfaceFieldValue massFlowAtFilter_61:
    total faces  = 1724
    total area   = 0.101691




surfaceFieldValue massFlowAtFilter_62:
    total faces  = 1616
    total area   = 0.101698




surfaceFieldValue massFlowAtFilter_63:
    total faces  = 1674
    total area   = 0.10179




surfaceFieldValue massFlowAtFilter_64:
    total faces  = 1400
    total area   = 0.101636




surfaceFieldValue massFlowAtFilter_65:
    total faces  = 1618
    total area   = 0.101708




surfaceFieldValue massFlowAtFilter_66:
    total faces  = 1676
    total area   = 0.101781




surfaceFieldValue massFlowAtFilter_67:
    total faces  = 1639
    total area   = 0.101714




surfaceFieldValue massFlowAtFilter_68:
    total faces  = 1400
    total area   = 0.10165




surfaceFieldValue massFlowAtFilter_69:
    total faces  = 1688
    total area   = 0.101794




surfaceFieldValue massFlowAtFilter_70:
    total faces  = 1736
    total area   = 0.101724




surfaceFieldValue massFlowAtFilter_71:
    total faces  = 1724
    total area   = 0.101699




surfaceFieldValue massFlowAtFilter_72:
    total faces  = 1722
    total area   = 0.101713




surfaceFieldValue massFlowAtFilter_73:
    total faces  = 1595
    total area   = 0.101762




surfaceFieldValue massFlowAtFilter_74:
    total faces  = 1734
    total area   = 0.101708




surfaceFieldValue massFlowAtFilter_75:
    total faces  = 1654
    total area   = 0.101718




surfaceFieldValue massFlowAtFilter_76:
    total faces  = 1595
    total area   = 0.101765




surfaceFieldValue massFlowAtFilter_77:
    total faces  = 1526
    total area   = 0.101687




surfaceFieldValue massFlowAtFilter_78:
    total faces  = 1730
    total area   = 0.101777




surfaceFieldValue massFlowAtFilter_79:
    total faces  = 1646
    total area   = 0.101736




surfaceFieldValue massFlowAtFilter_80:
    total faces  = 1661
    total area   = 0.101697




surfaceFieldValue massFlowAtFilter_81:
    total faces  = 1731
    total area   = 0.101664




surfaceFieldValue massFlowAtFilter_82:
    total faces  = 1626
    total area   = 0.101692




surfaceFieldValue massFlowAtFilter_83:
    total faces  = 1684
    total area   = 0.10172




surfaceFieldValue massFlowAtFilter_84:
    total faces  = 1446
    total area   = 0.101624




surfaceFieldValue massFlowAtFilter_85:
    total faces  = 1624
    total area   = 0.1017




surfaceFieldValue massFlowAtFilter_86:
    total faces  = 1686
    total area   = 0.101686




surfaceFieldValue massFlowAtFilter_87:
    total faces  = 1651
    total area   = 0.101705




surfaceFieldValue massFlowAtFilter_88:
    total faces  = 1446
    total area   = 0.101634




surfaceFieldValue massFlowAtFilter_89:
    total faces  = 1698
    total area   = 0.101717




surfaceFieldValue massFlowAtFilter_90:
    total faces  = 1742
    total area   = 0.101698




surfaceFieldValue massFlowAtFilter_91:
    total faces  = 1731
    total area   = 0.10165




surfaceFieldValue massFlowAtFilter_92:
    total faces  = 1729
    total area   = 0.101673




surfaceFieldValue massFlowAtFilter_93:
    total faces  = 1610
    total area   = 0.101726




surfaceFieldValue massFlowAtFilter_94:
    total faces  = 1741
    total area   = 0.101696




surfaceFieldValue massFlowAtFilter_95:
    total faces  = 1669
    total area   = 0.101698




surfaceFieldValue massFlowAtFilter_96:
    total faces  = 1610
    total area   = 0.101713




surfaceFieldValue massFlowAtFilter_97:
    total faces  = 1529
    total area   = 0.101678




surfaceFieldValue massFlowAtFilter_98:
    total faces  = 1737
    total area   = 0.101767




surfaceFieldValue massFlowAtFilter_99:
    total faces  = 1658
    total area   = 0.101717


Time = 1

DILUPBiCG:  Solving for Ux, Initial residual = 1, Final residual = 5.44699e-06, No Iterations 5
DILUPBiCG:  Solving for Uy, Initial residual = 1, Final residual = 1.65071e-06, No Iterations 7
DILUPBiCG:  Solving for Uz, Initial residual = 1, Final residual = 1.89424e-06, No Iterations 6
DICPCG:  Solving for p, Initial residual = 1, Final residual = 0.0950766, No Iterations 313
DICPCG:  Solving for p, Initial residual = 0.00356536, Final residual = 0.000245064, No Iterations 4
DICPCG:  Solving for p, Initial residual = 0.000486029, Final residual = 4.72457e-05, No Iterations 35
time step continuity errors : sum local = 0.0486008, global = -0.000372918, cumulative = -0.000372918
DILUPBiCG:  Solving for epsilon, Initial residual = 0.048646, Final residual = 1.33675e-06, No Iterations 4
DILUPBiCG:  Solving for k, Initial residual = 1, Final residual = 7.90167e-07, No Iterations 6
ExecutionTime = 5.71 s  ClockTime = 6 s

Time = 2

DILUPBiCG:  Solving for Ux, Initial residual = 0.000116015, Final residual = 3.27985e-06, No Iterations 2
DILUPBiCG:  Solving for Uy, Initial residual = 5.11656e-05, Final residual = 9.73943e-06, No Iterations 1
DILUPBiCG:  Solving for Uz, Initial residual = 0.000107598, Final residual = 2.26438e-06, No Iterations 2
DICPCG:  Solving for p, Initial residual = 0.0131358, Final residual = 0.00131145, No Iterations 114
DICPCG:  Solving for p, Initial residual = 0.00550357, Final residual = 0.000524313, No Iterations 246
DICPCG:  Solving for p, Initial residual = 0.00436835, Final residual = 0.000417566, No Iterations 31
time step continuity errors : sum local = 0.0582901, global = -0.00105327, cumulative = -0.00142619
DILUPBiCG:  Solving for epsilon, Initial residual = 0.0140273, Final residual = 8.44476e-07, No Iterations 4
DILUPBiCG:  Solving for k, Initial residual = 0.518522, Final residual = 4.69344e-08, No Iterations 7
ExecutionTime = 9.54 s  ClockTime = 10 s

Time = 3

DILUPBiCG:  Solving for Ux, Initial residual = 1.69549e-05, Final residual = 2.8921e-06, No Iterations 1
DILUPBiCG:  Solving for Uy, Initial residual = 1.06881e-05, Final residual = 2.11787e-06, No Iterations 1
DILUPBiCG:  Solving for Uz, Initial residual = 2.62154e-05, Final residual = 8.45121e-06, No Iterations 1
DICPCG:  Solving for p, Initial residual = 0.0185654, Final residual = 0.00180323, No Iterations 289
DICPCG:  Solving for p, Initial residual = 0.00725063, Final residual = 0.000580115, No Iterations 4
DICPCG:  Solving for p, Initial residual = 0.000969347, Final residual = 9.4084e-05, No Iterations 51
time step continuity errors : sum local = 0.0512089, global = 0.000383675, cumulative = -0.00104252
DILUPBiCG:  Solving for epsilon, Initial residual = 0.0181985, Final residual = 1.28467e-06, No Iterations 4
DILUPBiCG:  Solving for k, Initial residual = 0.259294, Final residual = 2.29188e-07, No Iterations 6
ExecutionTime = 12.95 s  ClockTime = 13 s

Time = 4

DILUPBiCG:  Solving for Ux, Initial residual = 4.83871e-06, Final residual = 4.83871e-06, No Iterations 0
DILUPBiCG:  Solving for Uy, Initial residual = 1.84133e-06, Final residual = 1.84133e-06, No Iterations 0
DILUPBiCG:  Solving for Uz, Initial residual = 5.88245e-06, Final residual = 5.88245e-06, No Iterations 0
DICPCG:  Solving for p, Initial residual = 0.0865952, Final residual = 0.00824131, No Iterations 297
DICPCG:  Solving for p, Initial residual = 0.00519728, Final residual = 0.000416879, No Iterations 4
DICPCG:  Solving for p, Initial residual = 0.000687035, Final residual = 6.80665e-05, No Iterations 43
time step continuity errors : sum local = 0.0345207, global = 0.000181261, cumulative = -0.000861255
DILUPBiCG:  Solving for epsilon, Initial residual = 0.0171521, Final residual = 5.23224e-06, No Iterations 3
DILUPBiCG:  Solving for k, Initial residual = 0.152602, Final residual = 1.88766e-07, No Iterations 6
ExecutionTime = 16.27 s  ClockTime = 17 s

Time = 5

DILUPBiCG:  Solving for Ux, Initial residual = 1.453e-05, Final residual = 2.97968e-06, No Iterations 1
DILUPBiCG:  Solving for Uy, Initial residual = 7.81477e-06, Final residual = 7.81477e-06, No Iterations 0
DILUPBiCG:  Solving for Uz, Initial residual = 1.26086e-05, Final residual = 3.15408e-06, No Iterations 1
DICPCG:  Solving for p, Initial residual = 0.0219189, Final residual = 0.00218269, No Iterations 46
DICPCG:  Solving for p, Initial residual = 0.00660305, Final residual = 0.00065411, No Iterations 261
DICPCG:  Solving for p, Initial residual = 0.00207291, Final residual = 0.000200314, No Iterations 7
time step continuity errors : sum local = 0.064243, global = 0.00154179, cumulative = 0.000680533
DILUPBiCG:  Solving for epsilon, Initial residual = 0.0144313, Final residual = 3.84395e-06, No Iterations 3
DILUPBiCG:  Solving for k, Initial residual = 0.109366, Final residual = 6.22159e-07, No Iterations 5
ExecutionTime = 19.43 s  ClockTime = 20 s

Time = 6

DILUPBiCG:  Solving for Ux, Initial residual = 2.05178e-05, Final residual = 4.71557e-06, No Iterations 1
DILUPBiCG:  Solving for Uy, Initial residual = 1.14526e-05, Final residual = 2.3434e-06, No Iterations 1
DILUPBiCG:  Solving for Uz, Initial residual = 1.37208e-05, Final residual = 4.33011e-06, No Iterations 1
DICPCG:  Solving for p, Initial residual = 0.0245802, Final residual = 0.00242616, No Iterations 287
DICPCG:  Solving for p, Initial residual = 0.00798574, Final residual = 0.000788272, No Iterations 6
DICPCG:  Solving for p, Initial residual = 0.00117328, Final residual = 0.000112802, No Iterations 55
time step continuity errors : sum local = 0.0452652, global = -6.45995e-05, cumulative = 0.000615933
DILUPBiCG:  Solving for epsilon, Initial residual = 0.0133566, Final residual = 3.97307e-06, No Iterations 3
DILUPBiCG:  Solving for k, Initial residual = 0.0930664, Final residual = 9.6072e-07, No Iterations 5
ExecutionTime = 22.84 s  ClockTime = 23 s

Time = 7

DILUPBiCG:  Solving for Ux, Initial residual = 1.53025e-05, Final residual = 5.95325e-07, No Iterations 2
DILUPBiCG:  Solving for Uy, Initial residual = 3.71018e-06, Final residual = 3.71018e-06, No Iterations 0
DILUPBiCG:  Solving for Uz, Initial residual = 6.94676e-06, Final residual = 6.94676e-06, No Iterations 0
DICPCG:  Solving for p, Initial residual = 0.0839137, Final residual = 0.00813967, No Iterations 288
DICPCG:  Solving for p, Initial residual = 0.00474444, Final residual = 0.000451912, No Iterations 5
DICPCG:  Solving for p, Initial residual = 0.000674466, Final residual = 6.678e-05, No Iterations 50
time step continuity errors : sum local = 0.0289227, global = -0.000341598, cumulative = 0.000274335
DILUPBiCG:  Solving for epsilon, Initial residual = 0.0121857, Final residual = 8.42177e-06, No Iterations 3
DILUPBiCG:  Solving for k, Initial residual = 0.0764972, Final residual = 5.10417e-08, No Iterations 6
ExecutionTime = 26.18 s  ClockTime = 27 s

Time = 8

DILUPBiCG:  Solving for Ux, Initial residual = 1.72632e-05, Final residual = 3.33493e-06, No Iterations 1
DILUPBiCG:  Solving for Uy, Initial residual = 9.61594e-06, Final residual = 9.61594e-06, No Iterations 0
DILUPBiCG:  Solving for Uz, Initial residual = 1.39255e-05, Final residual = 3.37283e-06, No Iterations 1
DICPCG:  Solving for p, Initial residual = 0.02424, Final residual = 0.00228986, No Iterations 285
DICPCG:  Solving for p, Initial residual = 0.00374672, Final residual = 0.000362251, No Iterations 14
DICPCG:  Solving for p, Initial residual = 0.000640462, Final residual = 6.36026e-05, No Iterations 47
time step continuity errors : sum local = 0.0202178, global = -0.000114111, cumulative = 0.000160223
DILUPBiCG:  Solving for epsilon, Initial residual = 0.0120157, Final residual = 6.32064e-07, No Iterations 4
DILUPBiCG:  Solving for k, Initial residual = 0.0649047, Final residual = 4.52716e-08, No Iterations 6
ExecutionTime = 29.57 s  ClockTime = 30 s

Time = 9

DILUPBiCG:  Solving for Ux, Initial residual = 6.78835e-06, Final residual = 6.78835e-06, No Iterations 0
DILUPBiCG:  Solving for Uy, Initial residual = 1.18238e-05, Final residual = 2.42898e-06, No Iterations 1
DILUPBiCG:  Solving for Uz, Initial residual = 7.43294e-06, Final residual = 7.43294e-06, No Iterations 0
DICPCG:  Solving for p, Initial residual = 0.0205064, Final residual = 0.00199462, No Iterations 283
DICPCG:  Solving for p, Initial residual = 0.0071417, Final residual = 0.000705102, No Iterations 15
DICPCG:  Solving for p, Initial residual = 0.0012106, Final residual = 0.000116728, No Iterations 47
time step continuity errors : sum local = 0.0276517, global = 4.64692e-05, cumulative = 0.000206693
DILUPBiCG:  Solving for epsilon, Initial residual = 0.012873, Final residual = 8.61573e-07, No Iterations 4
DILUPBiCG:  Solving for k, Initial residual = 0.0577583, Final residual = 7.70975e-07, No Iterations 5
ExecutionTime = 32.93 s  ClockTime = 33 s

Time = 10

DILUPBiCG:  Solving for Ux, Initial residual = 3.72877e-06, Final residual = 3.72877e-06, No Iterations 0
DILUPBiCG:  Solving for Uy, Initial residual = 2.21794e-06, Final residual = 2.21794e-06, No Iterations 0
DILUPBiCG:  Solving for Uz, Initial residual = 4.19186e-06, Final residual = 4.19186e-06, No Iterations 0
DICPCG:  Solving for p, Initial residual = 0.0421181, Final residual = 0.00396208, No Iterations 288
DICPCG:  Solving for p, Initial residual = 0.00478071, Final residual = 0.000471154, No Iterations 5
DICPCG:  Solving for p, Initial residual = 0.000688281, Final residual = 6.58789e-05, No Iterations 53
time step continuity errors : sum local = 0.0183851, global = 0.000133443, cumulative = 0.000340135
DILUPBiCG:  Solving for epsilon, Initial residual = 0.0111534, Final residual = 7.02294e-06, No Iterations 3
DILUPBiCG:  Solving for k, Initial residual = 0.0516856, Final residual = 7.46568e-07, No Iterations 5
ExecutionTime = 36.24 s  ClockTime = 37 s

Time = 11

DILUPBiCG:  Solving for Ux, Initial residual = 5.21113e-06, Final residual = 5.21113e-06, No Iterations 0
DILUPBiCG:  Solving for Uy, Initial residual = 2.40497e-06, Final residual = 2.40497e-06, No Iterations 0
DILUPBiCG:  Solving for Uz, Initial residual = 4.15559e-06, Final residual = 4.15559e-06, No Iterations 0
DICPCG:  Solving for p, Initial residual = 0.0247738, Final residual = 0.00245163, No Iterations 288
DICPCG:  Solving for p, Initial residual = 0.00329603, Final residual = 0.0003263, No Iterations 5
DICPCG:  Solving for p, Initial residual = 0.000479173, Final residual = 4.67938e-05, No Iterations 54
time step continuity errors : sum local = 0.0106067, global = 6.73998e-05, cumulative = 0.000407535
DILUPBiCG:  Solving for epsilon, Initial residual = 0.00996882, Final residual = 4.39359e-06, No Iterations 3
DILUPBiCG:  Solving for k, Initial residual = 0.0476509, Final residual = 3.60799e-08, No Iterations 6
ExecutionTime = 39.57 s  ClockTime = 40 s

Time = 12

DILUPBiCG:  Solving for Ux, Initial residual = 6.8405e-06, Final residual = 6.8405e-06, No Iterations 0
DILUPBiCG:  Solving for Uy, Initial residual = 5.20423e-06, Final residual = 5.20423e-06, No Iterations 0
DILUPBiCG:  Solving for Uz, Initial residual = 5.0653e-06, Final residual = 5.0653e-06, No Iterations 0
DICPCG:  Solving for p, Initial residual = 0.0100979, Final residual = 0.00100354, No Iterations 47
DICPCG:  Solving for p, Initial residual = 0.00228262, Final residual = 0.000214627, No Iterations 265
DICPCG:  Solving for p, Initial residual = 0.000890188, Final residual = 8.83365e-05, No Iterations 17
time step continuity errors : sum local = 0.0108195, global = -0.000106826, cumulative = 0.000300709
DILUPBiCG:  Solving for epsilon, Initial residual = 0.00944174, Final residual = 3.65995e-06, No Iterations 3
DILUPBiCG:  Solving for k, Initial residual = 0.0451213, Final residual = 3.11213e-08, No Iterations 6
ExecutionTime = 42.8 s  ClockTime = 43 s

Time = 13

DILUPBiCG:  Solving for Ux, Initial residual = 6.73724e-06, Final residual = 6.73724e-06, No Iterations 0
DILUPBiCG:  Solving for Uy, Initial residual = 6.15504e-06, Final residual = 6.15504e-06, No Iterations 0
DILUPBiCG:  Solving for Uz, Initial residual = 5.20805e-06, Final residual = 5.20805e-06, No Iterations 0
DICPCG:  Solving for p, Initial residual = 0.0113615, Final residual = 0.00108784, No Iterations 279
DICPCG:  Solving for p, Initial residual = 0.0363588, Final residual = 0.00361908, No Iterations 20
DICPCG:  Solving for p, Initial residual = 0.00700343, Final residual = 0.000675887, No Iterations 51
time step continuity errors : sum local = 0.00865416, global = -4.24636e-05, cumulative = 0.000258246
DILUPBiCG:  Solving for epsilon, Initial residual = 0.00933872, Final residual = 4.66625e-06, No Iterations 3
DILUPBiCG:  Solving for k, Initial residual = 0.0428628, Final residual = 2.45441e-08, No Iterations 6
ExecutionTime = 46.16 s  ClockTime = 47 s

Time = 14

DILUPBiCG:  Solving for Ux, Initial residual = 5.11755e-06, Final residual = 5.11755e-06, No Iterations 0
DILUPBiCG:  Solving for Uy, Initial residual = 5.00462e-06, Final residual = 5.00462e-06, No Iterations 0
DILUPBiCG:  Solving for Uz, Initial residual = 4.18698e-06, Final residual = 4.18698e-06, No Iterations 0
DICPCG:  Solving for p, Initial residual = 0.0150442, Final residual = 0.00149726, No Iterations 284
DICPCG:  Solving for p, Initial residual = 0.00856389, Final residual = 0.000843184, No Iterations 8
DICPCG:  Solving for p, Initial residual = 0.00129437, Final residual = 0.000119168, No Iterations 56
time step continuity errors : sum local = 0.00876973, global = -4.33565e-05, cumulative = 0.000214889
DILUPBiCG:  Solving for epsilon, Initial residual = 0.00935861, Final residual = 8.13162e-06, No Iterations 3
DILUPBiCG:  Solving for k, Initial residual = 0.0405193, Final residual = 2.12863e-08, No Iterations 6
ExecutionTime = 49.51 s  ClockTime = 50 s

Time = 15

DILUPBiCG:  Solving for Ux, Initial residual = 3.23414e-06, Final residual = 3.23414e-06, No Iterations 0
DILUPBiCG:  Solving for Uy, Initial residual = 2.42529e-06, Final residual = 2.42529e-06, No Iterations 0
DILUPBiCG:  Solving for Uz, Initial residual = 2.89255e-06, Final residual = 2.89255e-06, No Iterations 0
DICPCG:  Solving for p, Initial residual = 0.0263777, Final residual = 0.00263189, No Iterations 289
DICPCG:  Solving for p, Initial residual = 0.0052175, Final residual = 0.000504829, No Iterations 5
DICPCG:  Solving for p, Initial residual = 0.000737692, Final residual = 7.34824e-05, No Iterations 55
time step continuity errors : sum local = 0.00809934, global = -4.57845e-05, cumulative = 0.000169105
DILUPBiCG:  Solving for epsilon, Initial residual = 0.00931897, Final residual = 3.92793e-06, No Iterations 3
DILUPBiCG:  Solving for k, Initial residual = 0.0381295, Final residual = 1.90536e-08, No Iterations 6
ExecutionTime = 52.86 s  ClockTime = 53 s

Time = 16

DILUPBiCG:  Solving for Ux, Initial residual = 2.63147e-06, Final residual = 2.63147e-06, No Iterations 0
DILUPBiCG:  Solving for Uy, Initial residual = 7.12985e-07, Final residual = 7.12985e-07, No Iterations 0
DILUPBiCG:  Solving for Uz, Initial residual = 2.3957e-06, Final residual = 2.3957e-06, No Iterations 0
DICPCG:  Solving for p, Initial residual = 0.0641702, Final residual = 0.00631927, No Iterations 288
DICPCG:  Solving for p, Initial residual = 0.00369978, Final residual = 0.000365648, No Iterations 5
DICPCG:  Solving for p, Initial residual = 0.00053556, Final residual = 5.29823e-05, No Iterations 55
time step continuity errors : sum local = 0.00552095, global = -2.34794e-05, cumulative = 0.000145625
DILUPBiCG:  Solving for epsilon, Initial residual = 0.0091614, Final residual = 3.16423e-06, No Iterations 3
DILUPBiCG:  Solving for k, Initial residual = 0.0357688, Final residual = 2.0597e-08, No Iterations 6
ExecutionTime = 56.2 s  ClockTime = 57 s

Time = 17

DILUPBiCG:  Solving for Ux, Initial residual = 2.99545e-06, Final residual = 2.99545e-06, No Iterations 0
DILUPBiCG:  Solving for Uy, Initial residual = 2.13432e-06, Final residual = 2.13432e-06, No Iterations 0
DILUPBiCG:  Solving for Uz, Initial residual = 2.61675e-06, Final residual = 2.61675e-06, No Iterations 0
DICPCG:  Solving for p, Initial residual = 0.0120654, Final residual = 0.00117019, No Iterations 283
DICPCG:  Solving for p, Initial residual = 0.0024148, Final residual = 0.000237889, No Iterations 16
DICPCG:  Solving for p, Initial residual = 0.000448747, Final residual = 4.17461e-05, No Iterations 47
time step continuity errors : sum local = 0.00292756, global = -4.5333e-05, cumulative = 0.000100292
DILUPBiCG:  Solving for epsilon, Initial residual = 0.00893269, Final residual = 3.23163e-06, No Iterations 3
DILUPBiCG:  Solving for k, Initial residual = 0.0335543, Final residual = 9.19071e-07, No Iterations 4
ExecutionTime = 59.49 s  ClockTime = 60 s

Time = 18

DILUPBiCG:  Solving for Ux, Initial residual = 2.93341e-06, Final residual = 2.93341e-06, No Iterations 0
DILUPBiCG:  Solving for Uy, Initial residual = 2.54373e-06, Final residual = 2.54373e-06, No Iterations 0
DILUPBiCG:  Solving for Uz, Initial residual = 2.75148e-06, Final residual = 2.75148e-06, No Iterations 0
DICPCG:  Solving for p, Initial residual = 0.00978746, Final residual = 0.000972181, No Iterations 94
DICPCG:  Solving for p, Initial residual = 0.00259371, Final residual = 0.000255803, No Iterations 265
DICPCG:  Solving for p, Initial residual = 0.00269794, Final residual = 0.000258828, No Iterations 8
time step continuity errors : sum local = 0.00692536, global = 0.000128955, cumulative = 0.000229247
DILUPBiCG:  Solving for epsilon, Initial residual = 0.00869852, Final residual = 3.49154e-06, No Iterations 3
DILUPBiCG:  Solving for k, Initial residual = 0.031607, Final residual = 2.23456e-07, No Iterations 5
ExecutionTime = 62.96 s  ClockTime = 63 s

Time = 19

DILUPBiCG:  Solving for Ux, Initial residual = 2.45695e-06, Final residual = 2.45695e-06, No Iterations 0
DILUPBiCG:  Solving for Uy, Initial residual = 2.10571e-06, Final residual = 2.10571e-06, No Iterations 0
DILUPBiCG:  Solving for Uz, Initial residual = 2.56295e-06, Final residual = 2.56295e-06, No Iterations 0
DICPCG:  Solving for p, Initial residual = 0.0116379, Final residual = 0.00115018, No Iterations 284
DICPCG:  Solving for p, Initial residual = 0.015414, Final residual = 0.00153236, No Iterations 20
DICPCG:  Solving for p, Initial residual = 0.00282513, Final residual = 0.000270395, No Iterations 45
time step continuity errors : sum local = 0.00381037, global = 7.73043e-06, cumulative = 0.000236978
DILUPBiCG:  Solving for epsilon, Initial residual = 0.00848602, Final residual = 3.86596e-06, No Iterations 3
DILUPBiCG:  Solving for k, Initial residual = 0.0299809, Final residual = 1.99945e-07, No Iterations 5
ExecutionTime = 66.28 s  ClockTime = 67 s

Time = 20

DILUPBiCG:  Solving for Ux, Initial residual = 2.02642e-06, Final residual = 2.02642e-06, No Iterations 0
DILUPBiCG:  Solving for Uy, Initial residual = 1.27197e-06, Final residual = 1.27197e-06, No Iterations 0
DILUPBiCG:  Solving for Uz, Initial residual = 2.24855e-06, Final residual = 2.24855e-06, No Iterations 0
DICPCG:  Solving for p, Initial residual = 0.0160951, Final residual = 0.00155009, No Iterations 288
DICPCG:  Solving for p, Initial residual = 0.00651138, Final residual = 0.000623706, No Iterations 6
DICPCG:  Solving for p, Initial residual = 0.000928275, Final residual = 8.93158e-05, No Iterations 57
time step continuity errors : sum local = 0.00317326, global = 2.99393e-05, cumulative = 0.000266917
DILUPBiCG:  Solving for epsilon, Initial residual = 0.00829947, Final residual = 4.39917e-06, No Iterations 3
DILUPBiCG:  Solving for k, Initial residual = 0.0286577, Final residual = 1.72859e-07, No Iterations 5
ExecutionTime = 69.63 s  ClockTime = 70 s

forces porousforces write:
    sum of forces:
        pressure : (0 0 0)
        viscous  : (0 0 0)
        porous   : (80445.4 -3.13684e-14 83226.3)
    sum of moments:
        pressure : (0 0 0)
        viscous  : (0 0 0)
        porous   : (74421.9 -3126.2 -68733)

volFieldValue volFieldValue_0 write:
    volIntegrate(cz_solid_0) of U = (1.69366e-09 -4.53964e-09 -4.02928e-09)

surfaceFieldValue massFlowAtFilter_0 write:
    sum(fz_solid_0) of phi = 6.82998e-05

volFieldValue volFieldValue_1 write:
    volIntegrate(cz_solid_1) of U = (3.60823e-10 -3.93847e-09 -3.66767e-09)

surfaceFieldValue massFlowAtFilter_1 write:
    sum(fz_solid_1) of phi = 3.99369e-05

volFieldValue volFieldValue_2 write:
    volIntegrate(cz_solid_2) of U = (-7.01377e-10 -3.90157e-09 -3.08509e-09)

surfaceFieldValue massFlowAtFilter_2 write:
    sum(fz_solid_2) of phi = -5.93556e-05

volFieldValue volFieldValue_3 write:
    volIntegrate(cz_solid_3) of U = (-1.53482e-09 -3.66942e-09 -2.41145e-09)

surfaceFieldValue massFlowAtFilter_3 write:
    sum(fz_solid_3) of phi = -3.73923e-06

volFieldValue volFieldValue_4 write:
    volIntegrate(cz_solid_4) of U = (-2.31131e-09 -3.36059e-09 -1.58877e-09)

surfaceFieldValue massFlowAtFilter_4 write:
    sum(fz_solid_4) of phi = 7.8623e-06

volFieldValue volFieldValue_5 write:
    volIntegrate(cz_solid_5) of U = (-2.95724e-09 -3.33161e-09 -7.74964e-10)

surfaceFieldValue massFlowAtFilter_5 write:
    sum(fz_solid_5) of phi = -9.29468e-05

volFieldValue volFieldValue_6 write:
    volIntegrate(cz_solid_6) of U = (-3.54855e-09 -3.58922e-09 2.59835e-10)

surfaceFieldValue massFlowAtFilter_6 write:
    sum(fz_solid_6) of phi = -5.94491e-05

volFieldValue volFieldValue_7 write:
    volIntegrate(cz_solid_7) of U = (-3.85981e-09 -3.77152e-09 1.58892e-09)

surfaceFieldValue massFlowAtFilter_7 write:
    sum(fz_solid_7) of phi = 2.92512e-05

volFieldValue volFieldValue_8 write:
    volIntegrate(cz_solid_8) of U = (-3.74314e-09 -4.12169e-09 3.05098e-09)

surfaceFieldValue massFlowAtFilter_8 write:
    sum(fz_solid_8) of phi = -1.40447e-05

volFieldValue volFieldValue_9 write:
    volIntegrate(cz_solid_9) of U = (-3.03156e-09 -4.57348e-09 4.64412e-09)

surfaceFieldValue massFlowAtFilter_9 write:
    sum(fz_solid_9) of phi = 7.58213e-06

volFieldValue volFieldValue_10 write:
    volIntegrate(cz_solid_10) of U = (-1.65701e-09 -4.86645e-09 6.00948e-09)

surfaceFieldValue massFlowAtFilter_10 write:
    sum(fz_solid_10) of phi = -6.2372e-05

volFieldValue volFieldValue_11 write:
    volIntegrate(cz_solid_11) of U = (1.39161e-10 -5.21973e-09 6.95656e-09)

surfaceFieldValue massFlowAtFilter_11 write:
    sum(fz_solid_11) of phi = 8.85292e-06

volFieldValue volFieldValue_12 write:
    volIntegrate(cz_solid_12) of U = (2.51597e-09 -5.65685e-09 7.25238e-09)

surfaceFieldValue massFlowAtFilter_12 write:
    sum(fz_solid_12) of phi = 2.32552e-05

volFieldValue volFieldValue_13 write:
    volIntegrate(cz_solid_13) of U = (4.98842e-09 -6.33412e-09 6.6627e-09)

surfaceFieldValue massFlowAtFilter_13 write:
    sum(fz_solid_13) of phi = 9.56155e-05

volFieldValue volFieldValue_14 write:
    volIntegrate(cz_solid_14) of U = (7.02765e-09 -6.85424e-09 5.15485e-09)

surfaceFieldValue massFlowAtFilter_14 write:
    sum(fz_solid_14) of phi = 0.00015307

volFieldValue volFieldValue_15 write:
    volIntegrate(cz_solid_15) of U = (8.1803e-09 -7.13769e-09 2.69143e-09)

surfaceFieldValue massFlowAtFilter_15 write:
    sum(fz_solid_15) of phi = 0.000136183

volFieldValue volFieldValue_16 write:
    volIntegrate(cz_solid_16) of U = (8.00746e-09 -6.75815e-09 1.03124e-10)

surfaceFieldValue massFlowAtFilter_16 write:
    sum(fz_solid_16) of phi = 5.95002e-05

volFieldValue volFieldValue_17 write:
    volIntegrate(cz_solid_17) of U = (6.79848e-09 -6.30208e-09 -2.02656e-09)

surfaceFieldValue massFlowAtFilter_17 write:
    sum(fz_solid_17) of phi = -2.34481e-05

volFieldValue volFieldValue_18 write:
    volIntegrate(cz_solid_18) of U = (5.13294e-09 -5.48221e-09 -3.38181e-09)

surfaceFieldValue massFlowAtFilter_18 write:
    sum(fz_solid_18) of phi = 9.72651e-05

volFieldValue volFieldValue_19 write:
    volIntegrate(cz_solid_19) of U = (3.31524e-09 -4.89171e-09 -3.94263e-09)

surfaceFieldValue massFlowAtFilter_19 write:
    sum(fz_solid_19) of phi = 1.72091e-05

volFieldValue volFieldValue_20 write:
    volIntegrate(cz_solid_20) of U = (1.3243e-09 -7.58309e-09 -2.87439e-09)

surfaceFieldValue massFlowAtFilter_20 write:
    sum(fz_solid_20) of phi = 2.17993e-05

volFieldValue volFieldValue_21 write:
    volIntegrate(cz_solid_21) of U = (3.02753e-10 -6.9323e-09 -2.64827e-09)

surfaceFieldValue massFlowAtFilter_21 write:
    sum(fz_solid_21) of phi = 2.51438e-05

volFieldValue volFieldValue_22 write:
    volIntegrate(cz_solid_22) of U = (-5.14192e-10 -6.75482e-09 -2.24182e-09)

surfaceFieldValue massFlowAtFilter_22 write:
    sum(fz_solid_22) of phi = -4.68912e-05

volFieldValue volFieldValue_23 write:
    volIntegrate(cz_solid_23) of U = (-1.15667e-09 -6.6409e-09 -1.73815e-09)

surfaceFieldValue massFlowAtFilter_23 write:
    sum(fz_solid_23) of phi = 1.62812e-05

volFieldValue volFieldValue_24 write:
    volIntegrate(cz_solid_24) of U = (-1.7541e-09 -6.23985e-09 -1.10725e-09)

surfaceFieldValue massFlowAtFilter_24 write:
    sum(fz_solid_24) of phi = 1.06273e-05

volFieldValue volFieldValue_25 write:
    volIntegrate(cz_solid_25) of U = (-2.25554e-09 -6.06447e-09 -4.71861e-10)

surfaceFieldValue massFlowAtFilter_25 write:
    sum(fz_solid_25) of phi = 1.10973e-06

volFieldValue volFieldValue_26 write:
    volIntegrate(cz_solid_26) of U = (-2.71492e-09 -6.53558e-09 3.17927e-10)

surfaceFieldValue massFlowAtFilter_26 write:
    sum(fz_solid_26) of phi = -2.11768e-06

volFieldValue volFieldValue_27 write:
    volIntegrate(cz_solid_27) of U = (-2.9193e-09 -6.60989e-09 1.3643e-09)

surfaceFieldValue massFlowAtFilter_27 write:
    sum(fz_solid_27) of phi = 3.29549e-05

volFieldValue volFieldValue_28 write:
    volIntegrate(cz_solid_28) of U = (-2.7867e-09 -7.10872e-09 2.5024e-09)

surfaceFieldValue massFlowAtFilter_28 write:
    sum(fz_solid_28) of phi = 4.69737e-05

volFieldValue volFieldValue_29 write:
    volIntegrate(cz_solid_29) of U = (-2.14728e-09 -7.76575e-09 3.72515e-09)

surfaceFieldValue massFlowAtFilter_29 write:
    sum(fz_solid_29) of phi = 1.36315e-05

volFieldValue volFieldValue_30 write:
    volIntegrate(cz_solid_30) of U = (-1.04875e-09 -8.72312e-09 4.71978e-09)

surfaceFieldValue massFlowAtFilter_30 write:
    sum(fz_solid_30) of phi = -1.33837e-05

volFieldValue volFieldValue_31 write:
    volIntegrate(cz_solid_31) of U = (4.01061e-10 -1.02637e-08 5.37265e-09)

surfaceFieldValue massFlowAtFilter_31 write:
    sum(fz_solid_31) of phi = -2.95837e-05

volFieldValue volFieldValue_32 write:
    volIntegrate(cz_solid_32) of U = (2.21795e-09 -1.14473e-08 5.53747e-09)

surfaceFieldValue massFlowAtFilter_32 write:
    sum(fz_solid_32) of phi = -9.84756e-06

volFieldValue volFieldValue_33 write:
    volIntegrate(cz_solid_33) of U = (4.10323e-09 -1.2943e-08 5.13388e-09)

surfaceFieldValue massFlowAtFilter_33 write:
    sum(fz_solid_33) of phi = 7.27754e-05

volFieldValue volFieldValue_34 write:
    volIntegrate(cz_solid_34) of U = (5.65876e-09 -1.43514e-08 4.16989e-09)

surfaceFieldValue massFlowAtFilter_34 write:
    sum(fz_solid_34) of phi = 5.18246e-05

volFieldValue volFieldValue_35 write:
    volIntegrate(cz_solid_35) of U = (6.56078e-09 -1.44915e-08 2.46181e-09)

surfaceFieldValue massFlowAtFilter_35 write:
    sum(fz_solid_35) of phi = 5.76274e-05

volFieldValue volFieldValue_36 write:
    volIntegrate(cz_solid_36) of U = (6.38588e-09 -1.31866e-08 6.06918e-10)

surfaceFieldValue massFlowAtFilter_36 write:
    sum(fz_solid_36) of phi = 3.98194e-05

volFieldValue volFieldValue_37 write:
    volIntegrate(cz_solid_37) of U = (5.37279e-09 -1.11351e-08 -1.07113e-09)

surfaceFieldValue massFlowAtFilter_37 write:
    sum(fz_solid_37) of phi = 4.50028e-06

volFieldValue volFieldValue_38 write:
    volIntegrate(cz_solid_38) of U = (4.04614e-09 -9.76452e-09 -2.22367e-09)

surfaceFieldValue massFlowAtFilter_38 write:
    sum(fz_solid_38) of phi = -2.33702e-05

volFieldValue volFieldValue_39 write:
    volIntegrate(cz_solid_39) of U = (2.5883e-09 -8.20595e-09 -2.74137e-09)

surfaceFieldValue massFlowAtFilter_39 write:
    sum(fz_solid_39) of phi = 2.92929e-05

volFieldValue volFieldValue_40 write:
    volIntegrate(cz_solid_40) of U = (6.22995e-10 -6.68408e-09 -1.02681e-09)

surfaceFieldValue massFlowAtFilter_40 write:
    sum(fz_solid_40) of phi = 2.37724e-05

volFieldValue volFieldValue_41 write:
    volIntegrate(cz_solid_41) of U = (1.75661e-10 -6.14796e-09 -1.03646e-09)

surfaceFieldValue massFlowAtFilter_41 write:
    sum(fz_solid_41) of phi = 1.19649e-05

volFieldValue volFieldValue_42 write:
    volIntegrate(cz_solid_42) of U = (-2.17083e-10 -6.10474e-09 -9.02363e-10)

surfaceFieldValue massFlowAtFilter_42 write:
    sum(fz_solid_42) of phi = -2.73283e-06

volFieldValue volFieldValue_43 write:
    volIntegrate(cz_solid_43) of U = (-5.7246e-10 -5.89779e-09 -6.6738e-10)

surfaceFieldValue massFlowAtFilter_43 write:
    sum(fz_solid_43) of phi = 9.57851e-06

volFieldValue volFieldValue_44 write:
    volIntegrate(cz_solid_44) of U = (-9.10888e-10 -5.49934e-09 -3.67645e-10)

surfaceFieldValue massFlowAtFilter_44 write:
    sum(fz_solid_44) of phi = 3.18677e-06

volFieldValue volFieldValue_45 write:
    volIntegrate(cz_solid_45) of U = (-1.23453e-09 -5.4286e-09 -2.90337e-11)

surfaceFieldValue massFlowAtFilter_45 write:
    sum(fz_solid_45) of phi = 1.68323e-06

volFieldValue volFieldValue_46 write:
    volIntegrate(cz_solid_46) of U = (-1.5463e-09 -5.64609e-09 4.10672e-10)

surfaceFieldValue massFlowAtFilter_46 write:
    sum(fz_solid_46) of phi = -1.85366e-05

volFieldValue volFieldValue_47 write:
    volIntegrate(cz_solid_47) of U = (-1.68155e-09 -5.7107e-09 1.0901e-09)

surfaceFieldValue massFlowAtFilter_47 write:
    sum(fz_solid_47) of phi = 3.68105e-05

volFieldValue volFieldValue_48 write:
    volIntegrate(cz_solid_48) of U = (-1.56416e-09 -5.95734e-09 1.83346e-09)

surfaceFieldValue massFlowAtFilter_48 write:
    sum(fz_solid_48) of phi = -8.19981e-06

volFieldValue volFieldValue_49 write:
    volIntegrate(cz_solid_49) of U = (-1.08242e-09 -6.42151e-09 2.63653e-09)

surfaceFieldValue massFlowAtFilter_49 write:
    sum(fz_solid_49) of phi = -8.78148e-06

volFieldValue volFieldValue_50 write:
    volIntegrate(cz_solid_50) of U = (-2.57513e-10 -7.12062e-09 3.29691e-09)

surfaceFieldValue massFlowAtFilter_50 write:
    sum(fz_solid_50) of phi = 9.57963e-06

volFieldValue volFieldValue_51 write:
    volIntegrate(cz_solid_51) of U = (8.00712e-10 -8.28366e-09 3.69558e-09)

surfaceFieldValue massFlowAtFilter_51 write:
    sum(fz_solid_51) of phi = -7.33778e-06

volFieldValue volFieldValue_52 write:
    volIntegrate(cz_solid_52) of U = (2.14912e-09 -9.4329e-09 3.80907e-09)

surfaceFieldValue massFlowAtFilter_52 write:
    sum(fz_solid_52) of phi = 2.59299e-06

volFieldValue volFieldValue_53 write:
    volIntegrate(cz_solid_53) of U = (3.64468e-09 -1.13921e-08 3.67635e-09)

surfaceFieldValue massFlowAtFilter_53 write:
    sum(fz_solid_53) of phi = 2.10783e-05

volFieldValue volFieldValue_54 write:
    volIntegrate(cz_solid_54) of U = (5.06802e-09 -1.44847e-08 3.33708e-09)

surfaceFieldValue massFlowAtFilter_54 write:
    sum(fz_solid_54) of phi = 4.81796e-05

volFieldValue volFieldValue_55 write:
    volIntegrate(cz_solid_55) of U = (5.90944e-09 -1.68285e-08 2.55075e-09)

surfaceFieldValue massFlowAtFilter_55 write:
    sum(fz_solid_55) of phi = 2.41998e-05

volFieldValue volFieldValue_56 write:
    volIntegrate(cz_solid_56) of U = (4.82501e-09 -1.66542e-08 2.2148e-09)

surfaceFieldValue massFlowAtFilter_56 write:
    sum(fz_solid_56) of phi = -1.99788e-05

volFieldValue volFieldValue_57 write:
    volIntegrate(cz_solid_57) of U = (2.63291e-09 -1.13941e-08 1.08131e-09)

surfaceFieldValue massFlowAtFilter_57 write:
    sum(fz_solid_57) of phi = 5.9869e-06

volFieldValue volFieldValue_58 write:
    volIntegrate(cz_solid_58) of U = (1.59914e-09 -8.09731e-09 -3.63144e-10)

surfaceFieldValue massFlowAtFilter_58 write:
    sum(fz_solid_58) of phi = -4.33582e-06

volFieldValue volFieldValue_59 write:
    volIntegrate(cz_solid_59) of U = (1.12176e-09 -6.89562e-09 -7.88504e-10)

surfaceFieldValue massFlowAtFilter_59 write:
    sum(fz_solid_59) of phi = 3.53319e-06

volFieldValue volFieldValue_60 write:
    volIntegrate(cz_solid_60) of U = (-1.99261e-10 -5.14728e-09 5.35263e-10)

surfaceFieldValue massFlowAtFilter_60 write:
    sum(fz_solid_60) of phi = -6.83736e-06

volFieldValue volFieldValue_61 write:
    volIntegrate(cz_solid_61) of U = (-4.40028e-11 -4.531e-09 2.76951e-10)

surfaceFieldValue massFlowAtFilter_61 write:
    sum(fz_solid_61) of phi = -9.36389e-06

volFieldValue volFieldValue_62 write:
    volIntegrate(cz_solid_62) of U = (-6.93814e-11 -4.34291e-09 1.30896e-10)

surfaceFieldValue massFlowAtFilter_62 write:
    sum(fz_solid_62) of phi = -1.18618e-05

volFieldValue volFieldValue_63 write:
    volIntegrate(cz_solid_63) of U = (-2.1971e-10 -4.07e-09 1.17297e-10)

surfaceFieldValue massFlowAtFilter_63 write:
    sum(fz_solid_63) of phi = -1.83703e-05

volFieldValue volFieldValue_64 write:
    volIntegrate(cz_solid_64) of U = (-4.02261e-10 -3.70127e-09 1.41731e-10)

surfaceFieldValue massFlowAtFilter_64 write:
    sum(fz_solid_64) of phi = -1.76629e-05

volFieldValue volFieldValue_65 write:
    volIntegrate(cz_solid_65) of U = (-6.38089e-10 -3.56012e-09 2.60617e-10)

surfaceFieldValue massFlowAtFilter_65 write:
    sum(fz_solid_65) of phi = -2.41835e-05

volFieldValue volFieldValue_66 write:
    volIntegrate(cz_solid_66) of U = (-8.85309e-10 -3.73362e-09 4.87539e-10)

surfaceFieldValue massFlowAtFilter_66 write:
    sum(fz_solid_66) of phi = -2.42009e-05

volFieldValue volFieldValue_67 write:
    volIntegrate(cz_solid_67) of U = (-9.9959e-10 -3.72653e-09 9.7232e-10)

surfaceFieldValue massFlowAtFilter_67 write:
    sum(fz_solid_67) of phi = -9.97609e-06

volFieldValue volFieldValue_68 write:
    volIntegrate(cz_solid_68) of U = (-9.15541e-10 -3.90397e-09 1.52953e-09)

surfaceFieldValue massFlowAtFilter_68 write:
    sum(fz_solid_68) of phi = -2.24838e-05

volFieldValue volFieldValue_69 write:
    volIntegrate(cz_solid_69) of U = (-5.08607e-10 -4.28473e-09 2.19454e-09)

surfaceFieldValue massFlowAtFilter_69 write:
    sum(fz_solid_69) of phi = -1.2878e-05

volFieldValue volFieldValue_70 write:
    volIntegrate(cz_solid_70) of U = (2.28573e-10 -4.82603e-09 2.77653e-09)

surfaceFieldValue massFlowAtFilter_70 write:
    sum(fz_solid_70) of phi = -2.85115e-05

volFieldValue volFieldValue_71 write:
    volIntegrate(cz_solid_71) of U = (1.2108e-09 -5.76705e-09 3.16618e-09)

surfaceFieldValue massFlowAtFilter_71 write:
    sum(fz_solid_71) of phi = -1.81221e-05

volFieldValue volFieldValue_72 write:
    volIntegrate(cz_solid_72) of U = (2.64961e-09 -7.03923e-09 3.37206e-09)

surfaceFieldValue massFlowAtFilter_72 write:
    sum(fz_solid_72) of phi = -3.58701e-05

volFieldValue volFieldValue_73 write:
    volIntegrate(cz_solid_73) of U = (4.63527e-09 -9.50257e-09 3.40456e-09)

surfaceFieldValue massFlowAtFilter_73 write:
    sum(fz_solid_73) of phi = 3.08988e-06

volFieldValue volFieldValue_74 write:
    volIntegrate(cz_solid_74) of U = (7.28724e-09 -1.38476e-08 3.25458e-09)

surfaceFieldValue massFlowAtFilter_74 write:
    sum(fz_solid_74) of phi = 6.53159e-05

volFieldValue volFieldValue_75 write:
    volIntegrate(cz_solid_75) of U = (1.08208e-08 -2.0257e-08 1.91003e-09)

surfaceFieldValue massFlowAtFilter_75 write:
    sum(fz_solid_75) of phi = 7.57586e-05

volFieldValue volFieldValue_76 write:
    volIntegrate(cz_solid_76) of U = (1.15297e-08 -2.96608e-08 2.88264e-09)

surfaceFieldValue massFlowAtFilter_76 write:
    sum(fz_solid_76) of phi = -1.55128e-05

volFieldValue volFieldValue_77 write:
    volIntegrate(cz_solid_77) of U = (9.72564e-10 -2.1723e-08 8.9936e-09)

surfaceFieldValue massFlowAtFilter_77 write:
    sum(fz_solid_77) of phi = 5.65073e-05

volFieldValue volFieldValue_78 write:
    volIntegrate(cz_solid_78) of U = (-3.16004e-09 -7.69417e-09 1.22285e-09)

surfaceFieldValue massFlowAtFilter_78 write:
    sum(fz_solid_78) of phi = -3.2519e-05

volFieldValue volFieldValue_79 write:
    volIntegrate(cz_solid_79) of U = (-7.4029e-10 -5.56232e-09 9.0215e-10)

surfaceFieldValue massFlowAtFilter_79 write:
    sum(fz_solid_79) of phi = -2.28538e-05

volFieldValue volFieldValue_80 write:
    volIntegrate(cz_solid_80) of U = (-6.44709e-10 -2.54452e-09 1.3308e-09)

surfaceFieldValue massFlowAtFilter_80 write:
    sum(fz_solid_80) of phi = -3.08989e-05

volFieldValue volFieldValue_81 write:
    volIntegrate(cz_solid_81) of U = (-2.12543e-10 -2.17781e-09 9.26912e-10)

surfaceFieldValue massFlowAtFilter_81 write:
    sum(fz_solid_81) of phi = -2.16999e-05

volFieldValue volFieldValue_82 write:
    volIntegrate(cz_solid_82) of U = (-4.41116e-11 -1.93231e-09 6.16807e-10)

surfaceFieldValue massFlowAtFilter_82 write:
    sum(fz_solid_82) of phi = -8.49916e-06

volFieldValue volFieldValue_83 write:
    volIntegrate(cz_solid_83) of U = (-1.10011e-10 -1.65111e-09 4.78512e-10)

surfaceFieldValue massFlowAtFilter_83 write:
    sum(fz_solid_83) of phi = -1.53212e-05

volFieldValue volFieldValue_84 write:
    volIntegrate(cz_solid_84) of U = (-2.16322e-10 -1.38809e-09 3.76333e-10)

surfaceFieldValue massFlowAtFilter_84 write:
    sum(fz_solid_84) of phi = -1.64782e-05

volFieldValue volFieldValue_85 write:
    volIntegrate(cz_solid_85) of U = (-4.04668e-10 -1.2735e-09 4.15124e-10)

surfaceFieldValue massFlowAtFilter_85 write:
    sum(fz_solid_85) of phi = -3.1775e-05

volFieldValue volFieldValue_86 write:
    volIntegrate(cz_solid_86) of U = (-6.01415e-10 -1.32999e-09 5.68171e-10)

surfaceFieldValue massFlowAtFilter_86 write:
    sum(fz_solid_86) of phi = -1.93216e-05

volFieldValue volFieldValue_87 write:
    volIntegrate(cz_solid_87) of U = (-6.77316e-10 -1.32773e-09 9.61735e-10)

surfaceFieldValue massFlowAtFilter_87 write:
    sum(fz_solid_87) of phi = 1.84829e-05

volFieldValue volFieldValue_88 write:
    volIntegrate(cz_solid_88) of U = (-5.79664e-10 -1.45422e-09 1.44565e-09)

surfaceFieldValue massFlowAtFilter_88 write:
    sum(fz_solid_88) of phi = -2.32171e-05

volFieldValue volFieldValue_89 write:
    volIntegrate(cz_solid_89) of U = (-1.97856e-10 -1.67863e-09 2.03656e-09)

surfaceFieldValue massFlowAtFilter_89 write:
    sum(fz_solid_89) of phi = 6.02132e-06

volFieldValue volFieldValue_90 write:
    volIntegrate(cz_solid_90) of U = (5.31262e-10 -1.85898e-09 2.58394e-09)

surfaceFieldValue massFlowAtFilter_90 write:
    sum(fz_solid_90) of phi = -2.17692e-05

volFieldValue volFieldValue_91 write:
    volIntegrate(cz_solid_91) of U = (1.54468e-09 -2.19843e-09 2.96673e-09)

surfaceFieldValue massFlowAtFilter_91 write:
    sum(fz_solid_91) of phi = 5.57009e-06

volFieldValue volFieldValue_92 write:
    volIntegrate(cz_solid_92) of U = (3.16668e-09 -2.74972e-09 3.11309e-09)

surfaceFieldValue massFlowAtFilter_92 write:
    sum(fz_solid_92) of phi = -9.17641e-06

volFieldValue volFieldValue_93 write:
    volIntegrate(cz_solid_93) of U = (5.51008e-09 -3.86411e-09 2.98027e-09)

surfaceFieldValue massFlowAtFilter_93 write:
    sum(fz_solid_93) of phi = 3.54476e-05

volFieldValue volFieldValue_94 write:
    volIntegrate(cz_solid_94) of U = (8.82008e-09 -5.1413e-09 2.72331e-09)

surfaceFieldValue massFlowAtFilter_94 write:
    sum(fz_solid_94) of phi = 0.000153952

volFieldValue volFieldValue_95 write:
[...]
    sum(fz_solid_36) of phi = 1.07316e-05

volFieldValue volFieldValue_37 write:
    volIntegrate(cz_solid_37) of U = (8.25508e-11 -9.67285e-10 -2.66688e-10)

surfaceFieldValue massFlowAtFilter_37 write:
    sum(fz_solid_37) of phi = 3.09605e-05

volFieldValue volFieldValue_38 write:
    volIntegrate(cz_solid_38) of U = (-7.8149e-11 -1.46731e-08 -8.19519e-11)

surfaceFieldValue massFlowAtFilter_38 write:
    sum(fz_solid_38) of phi = -0.000133764

volFieldValue volFieldValue_39 write:
    volIntegrate(cz_solid_39) of U = (-1.86714e-10 -2.75348e-08 1.84384e-10)

surfaceFieldValue massFlowAtFilter_39 write:
    sum(fz_solid_39) of phi = -9.92538e-05

volFieldValue volFieldValue_40 write:
    volIntegrate(cz_solid_40) of U = (-3.12458e-10 -2.25869e-08 5.82985e-10)

surfaceFieldValue massFlowAtFilter_40 write:
    sum(fz_solid_40) of phi = -4.83874e-05

volFieldValue volFieldValue_41 write:
    volIntegrate(cz_solid_41) of U = (-3.12906e-10 -3.99809e-08 5.59401e-10)

surfaceFieldValue massFlowAtFilter_41 write:
    sum(fz_solid_41) of phi = -6.85584e-06

volFieldValue volFieldValue_42 write:
    volIntegrate(cz_solid_42) of U = (-7.65927e-10 -6.69609e-08 9.48177e-10)

surfaceFieldValue massFlowAtFilter_42 write:
    sum(fz_solid_42) of phi = 0.000200931

volFieldValue volFieldValue_43 write:
    volIntegrate(cz_solid_43) of U = (-1.40775e-09 -1.09619e-07 2.23449e-09)

surfaceFieldValue massFlowAtFilter_43 write:
    sum(fz_solid_43) of phi = 0.000685562

volFieldValue volFieldValue_44 write:
    volIntegrate(cz_solid_44) of U = (-7.34499e-10 -1.55997e-07 4.4272e-09)

surfaceFieldValue massFlowAtFilter_44 write:
    sum(fz_solid_44) of phi = 0.000338682

volFieldValue volFieldValue_45 write:
    volIntegrate(cz_solid_45) of U = (1.68713e-09 -2.14214e-07 5.22187e-09)

surfaceFieldValue massFlowAtFilter_45 write:
    sum(fz_solid_45) of phi = 0.000153581

volFieldValue volFieldValue_46 write:
    volIntegrate(cz_solid_46) of U = (1.75872e-09 -2.62473e-07 3.42214e-09)

surfaceFieldValue massFlowAtFilter_46 write:
    sum(fz_solid_46) of phi = -0.000632084

volFieldValue volFieldValue_47 write:
    volIntegrate(cz_solid_47) of U = (1.16431e-09 -3.13083e-07 3.25142e-09)

surfaceFieldValue massFlowAtFilter_47 write:
    sum(fz_solid_47) of phi = 0.000369296

volFieldValue volFieldValue_48 write:
    volIntegrate(cz_solid_48) of U = (2.40573e-09 -3.25957e-07 2.45372e-09)

surfaceFieldValue massFlowAtFilter_48 write:
    sum(fz_solid_48) of phi = -0.000223748

volFieldValue volFieldValue_49 write:
    volIntegrate(cz_solid_49) of U = (1.40771e-09 -3.2831e-07 7.53796e-10)

surfaceFieldValue massFlowAtFilter_49 write:
    sum(fz_solid_49) of phi = -0.00010928

volFieldValue volFieldValue_50 write:
    volIntegrate(cz_solid_50) of U = (5.1842e-10 -2.36693e-07 -2.87503e-10)

surfaceFieldValue massFlowAtFilter_50 write:
    sum(fz_solid_50) of phi = -9.04366e-05

volFieldValue volFieldValue_51 write:
    volIntegrate(cz_solid_51) of U = (4.32943e-10 -1.46842e-07 -3.02124e-10)

surfaceFieldValue massFlowAtFilter_51 write:
    sum(fz_solid_51) of phi = -3.94637e-05

volFieldValue volFieldValue_52 write:
    volIntegrate(cz_solid_52) of U = (2.04336e-10 -8.25199e-08 -4.59747e-11)

surfaceFieldValue massFlowAtFilter_52 write:
    sum(fz_solid_52) of phi = 2.04859e-05

volFieldValue volFieldValue_53 write:
    volIntegrate(cz_solid_53) of U = (5.61899e-11 -1.29149e-08 -2.17592e-11)

surfaceFieldValue massFlowAtFilter_53 write:
    sum(fz_solid_53) of phi = 2.67427e-05

volFieldValue volFieldValue_54 write:
    volIntegrate(cz_solid_54) of U = (-1.67944e-10 4.52959e-08 -1.19619e-10)

surfaceFieldValue massFlowAtFilter_54 write:
    sum(fz_solid_54) of phi = 2.55642e-05

volFieldValue volFieldValue_55 write:
    volIntegrate(cz_solid_55) of U = (-3.86141e-10 8.68675e-08 -2.65446e-10)

surfaceFieldValue massFlowAtFilter_55 write:
    sum(fz_solid_55) of phi = 1.51921e-05

volFieldValue volFieldValue_56 write:
    volIntegrate(cz_solid_56) of U = (-5.60697e-10 9.1246e-08 -2.92038e-10)

surfaceFieldValue massFlowAtFilter_56 write:
    sum(fz_solid_56) of phi = 1.684e-05

volFieldValue volFieldValue_57 write:
    volIntegrate(cz_solid_57) of U = (-6.49749e-10 6.52088e-08 -5.32829e-11)

surfaceFieldValue massFlowAtFilter_57 write:
    sum(fz_solid_57) of phi = 6.20744e-05

volFieldValue volFieldValue_58 write:
    volIntegrate(cz_solid_58) of U = (-4.87547e-10 2.44634e-08 2.67476e-10)

surfaceFieldValue massFlowAtFilter_58 write:
    sum(fz_solid_58) of phi = -4.73687e-05

volFieldValue volFieldValue_59 write:
    volIntegrate(cz_solid_59) of U = (-3.32066e-10 -4.49207e-09 4.66356e-10)

surfaceFieldValue massFlowAtFilter_59 write:
    sum(fz_solid_59) of phi = -7.59952e-05

volFieldValue volFieldValue_60 write:
    volIntegrate(cz_solid_60) of U = (-5.58944e-10 1.75415e-08 8.35217e-10)

surfaceFieldValue massFlowAtFilter_60 write:
    sum(fz_solid_60) of phi = -9.43634e-05

volFieldValue volFieldValue_61 write:
    volIntegrate(cz_solid_61) of U = (-5.3553e-10 -1.03524e-08 8.07019e-10)

surfaceFieldValue massFlowAtFilter_61 write:
    sum(fz_solid_61) of phi = 3.17679e-05

volFieldValue volFieldValue_62 write:
    volIntegrate(cz_solid_62) of U = (-1.11586e-09 -3.93845e-08 1.27927e-09)

surfaceFieldValue massFlowAtFilter_62 write:
    sum(fz_solid_62) of phi = -1.79542e-05

volFieldValue volFieldValue_63 write:
    volIntegrate(cz_solid_63) of U = (-2.04863e-09 -7.83881e-08 3.05019e-09)

surfaceFieldValue massFlowAtFilter_63 write:
    sum(fz_solid_63) of phi = 0.000796931

volFieldValue volFieldValue_64 write:
    volIntegrate(cz_solid_64) of U = (-9.92702e-10 -1.18092e-07 6.59574e-09)

surfaceFieldValue massFlowAtFilter_64 write:
    sum(fz_solid_64) of phi = 0.000396759

volFieldValue volFieldValue_65 write:
    volIntegrate(cz_solid_65) of U = (2.79077e-09 -1.54657e-07 8.03149e-09)

surfaceFieldValue massFlowAtFilter_65 write:
    sum(fz_solid_65) of phi = 0.000218525

volFieldValue volFieldValue_66 write:
    volIntegrate(cz_solid_66) of U = (3.46068e-09 -1.87946e-07 5.33073e-09)

surfaceFieldValue massFlowAtFilter_66 write:
    sum(fz_solid_66) of phi = -0.000833624

volFieldValue volFieldValue_67 write:
    volIntegrate(cz_solid_67) of U = (2.96637e-09 -1.99718e-07 5.11026e-09)

surfaceFieldValue massFlowAtFilter_67 write:
    sum(fz_solid_67) of phi = 0.000955882

volFieldValue volFieldValue_68 write:
    volIntegrate(cz_solid_68) of U = (5.53861e-09 -2.12876e-07 3.85542e-09)

surfaceFieldValue massFlowAtFilter_68 write:
    sum(fz_solid_68) of phi = 2.21121e-05

volFieldValue volFieldValue_69 write:
    volIntegrate(cz_solid_69) of U = (4.21413e-09 -2.24012e-07 2.73192e-10)

surfaceFieldValue massFlowAtFilter_69 write:
    sum(fz_solid_69) of phi = 5.24488e-05

volFieldValue volFieldValue_70 write:
    volIntegrate(cz_solid_70) of U = (1.60868e-09 -2.00963e-07 -1.21371e-09)

surfaceFieldValue massFlowAtFilter_70 write:
    sum(fz_solid_70) of phi = -0.00044605

volFieldValue volFieldValue_71 write:
    volIntegrate(cz_solid_71) of U = (8.30139e-10 -1.98821e-07 -9.49359e-10)

surfaceFieldValue massFlowAtFilter_71 write:
    sum(fz_solid_71) of phi = -4.46903e-05

volFieldValue volFieldValue_72 write:
    volIntegrate(cz_solid_72) of U = (-1.02471e-10 -1.73443e-07 -8.35011e-10)

surfaceFieldValue massFlowAtFilter_72 write:
    sum(fz_solid_72) of phi = 7.4939e-05

volFieldValue volFieldValue_73 write:
    volIntegrate(cz_solid_73) of U = (-1.20911e-09 -7.86506e-08 -8.52342e-10)

surfaceFieldValue massFlowAtFilter_73 write:
    sum(fz_solid_73) of phi = -3.81963e-05

volFieldValue volFieldValue_74 write:
    volIntegrate(cz_solid_74) of U = (-1.60342e-09 4.79574e-08 -8.57842e-10)

surfaceFieldValue massFlowAtFilter_74 write:
    sum(fz_solid_74) of phi = -4.66157e-05

volFieldValue volFieldValue_75 write:
    volIntegrate(cz_solid_75) of U = (-1.33398e-09 1.29616e-07 -1.0797e-09)

surfaceFieldValue massFlowAtFilter_75 write:
    sum(fz_solid_75) of phi = -0.000125208

volFieldValue volFieldValue_76 write:
    volIntegrate(cz_solid_76) of U = (-1.08858e-09 9.91226e-08 -7.65642e-10)

surfaceFieldValue massFlowAtFilter_76 write:
    sum(fz_solid_76) of phi = 9.21291e-05

volFieldValue volFieldValue_77 write:
    volIntegrate(cz_solid_77) of U = (-7.52395e-10 7.71718e-08 -2.04287e-10)

surfaceFieldValue massFlowAtFilter_77 write:
    sum(fz_solid_77) of phi = 1.9067e-07

volFieldValue volFieldValue_78 write:
    volIntegrate(cz_solid_78) of U = (-6.62389e-10 6.90286e-08 1.34591e-10)

surfaceFieldValue massFlowAtFilter_78 write:
    sum(fz_solid_78) of phi = -0.000332012

volFieldValue volFieldValue_79 write:
    volIntegrate(cz_solid_79) of U = (-6.27064e-10 3.79122e-08 5.40322e-10)

surfaceFieldValue massFlowAtFilter_79 write:
    sum(fz_solid_79) of phi = -5.71526e-05

volFieldValue volFieldValue_80 write:
    volIntegrate(cz_solid_80) of U = (-7.35561e-10 -1.13696e-08 5.42575e-10)

surfaceFieldValue massFlowAtFilter_80 write:
    sum(fz_solid_80) of phi = -3.38604e-05

volFieldValue volFieldValue_81 write:
    volIntegrate(cz_solid_81) of U = (-7.75492e-10 -3.15121e-08 7.59909e-10)

surfaceFieldValue massFlowAtFilter_81 write:
    sum(fz_solid_81) of phi = -2.70936e-05

volFieldValue volFieldValue_82 write:
    volIntegrate(cz_solid_82) of U = (-1.52332e-09 -4.1032e-08 1.34683e-09)

surfaceFieldValue massFlowAtFilter_82 write:
    sum(fz_solid_82) of phi = -5.09022e-05

volFieldValue volFieldValue_83 write:
    volIntegrate(cz_solid_83) of U = (-2.64006e-09 -4.89158e-08 3.41929e-09)

surfaceFieldValue massFlowAtFilter_83 write:
    sum(fz_solid_83) of phi = 0.000529526

volFieldValue volFieldValue_84 write:
    volIntegrate(cz_solid_84) of U = (-1.57583e-09 -4.93851e-08 8.17138e-09)

surfaceFieldValue massFlowAtFilter_84 write:
    sum(fz_solid_84) of phi = 0.000883721

volFieldValue volFieldValue_85 write:
    volIntegrate(cz_solid_85) of U = (3.12006e-09 -4.8866e-08 1.00176e-08)

surfaceFieldValue massFlowAtFilter_85 write:
    sum(fz_solid_85) of phi = 1.51374e-05

volFieldValue volFieldValue_86 write:
    volIntegrate(cz_solid_86) of U = (4.42417e-09 -3.25542e-08 6.61994e-09)

surfaceFieldValue massFlowAtFilter_86 write:
    sum(fz_solid_86) of phi = -0.00109547

volFieldValue volFieldValue_87 write:
    volIntegrate(cz_solid_87) of U = (4.22339e-09 -2.97289e-08 6.59518e-09)

surfaceFieldValue massFlowAtFilter_87 write:
    sum(fz_solid_87) of phi = 0.00280452

volFieldValue volFieldValue_88 write:
    volIntegrate(cz_solid_88) of U = (7.73422e-09 -1.14559e-08 5.2795e-09)

surfaceFieldValue massFlowAtFilter_88 write:
    sum(fz_solid_88) of phi = -0.000449077

volFieldValue volFieldValue_89 write:
    volIntegrate(cz_solid_89) of U = (8.78299e-09 -3.23795e-08 8.9228e-10)

surfaceFieldValue massFlowAtFilter_89 write:
    sum(fz_solid_89) of phi = 0.000173369

volFieldValue volFieldValue_90 write:
    volIntegrate(cz_solid_90) of U = (4.36119e-09 -6.11588e-08 -2.04478e-09)

surfaceFieldValue massFlowAtFilter_90 write:
    sum(fz_solid_90) of phi = -0.00119199

volFieldValue volFieldValue_91 write:
    volIntegrate(cz_solid_91) of U = (1.63966e-09 -7.37665e-08 -1.43976e-09)

surfaceFieldValue massFlowAtFilter_91 write:
    sum(fz_solid_91) of phi = -0.000112118

volFieldValue volFieldValue_92 write:
    volIntegrate(cz_solid_92) of U = (8.81944e-10 -6.30428e-08 -1.01317e-09)

surfaceFieldValue massFlowAtFilter_92 write:
    sum(fz_solid_92) of phi = -3.08631e-05

volFieldValue volFieldValue_93 write:
    volIntegrate(cz_solid_93) of U = (-1.03264e-09 -1.86232e-08 -1.55226e-09)

surfaceFieldValue massFlowAtFilter_93 write:
    sum(fz_solid_93) of phi = -0.000252149

volFieldValue volFieldValue_94 write:
    volIntegrate(cz_solid_94) of U = (-2.34217e-09 2.26716e-08 -6.53059e-10)

surfaceFieldValue massFlowAtFilter_94 write:
    sum(fz_solid_94) of phi = 0.0002602

volFieldValue volFieldValue_95 write:
    volIntegrate(cz_solid_95) of U = (-1.30283e-09 6.1695e-08 -1.23764e-09)

surfaceFieldValue massFlowAtFilter_95 write:
    sum(fz_solid_95) of phi = 1.36607e-06

volFieldValue volFieldValue_96 write:
    volIntegrate(cz_solid_96) of U = (-9.60738e-10 8.12582e-08 -7.86186e-10)

surfaceFieldValue massFlowAtFilter_96 write:
    sum(fz_solid_96) of phi = 0.000172032

volFieldValue volFieldValue_97 write:
    volIntegrate(cz_solid_97) of U = (-6.40281e-10 8.01216e-08 -1.72972e-10)

surfaceFieldValue massFlowAtFilter_97 write:
    sum(fz_solid_97) of phi = 0.000235871

volFieldValue volFieldValue_98 write:
    volIntegrate(cz_solid_98) of U = (-6.18821e-10 4.92427e-08 1.20127e-10)

surfaceFieldValue massFlowAtFilter_98 write:
    sum(fz_solid_98) of phi = -0.00010738

volFieldValue volFieldValue_99 write:
    volIntegrate(cz_solid_99) of U = (-6.21982e-10 2.10667e-08 3.5337e-10)

surfaceFieldValue massFlowAtFilter_99 write:
    sum(fz_solid_99) of phi = 2.90993e-05

Time = 1001

DILUPBiCG:  Solving for Ux, Initial residual = 1.35606e-07, Final residual = 1.35606e-07, No Iterations 0
DILUPBiCG:  Solving for Uy, Initial residual = 1.3002e-07, Final residual = 1.3002e-07, No Iterations 0
DILUPBiCG:  Solving for Uz, Initial residual = 2.44636e-07, Final residual = 2.44636e-07, No Iterations 0
DICPCG:  Solving for p, Initial residual = 0.00101065, Final residual = 9.98353e-05, No Iterations 19
DICPCG:  Solving for p, Initial residual = 0.00024736, Final residual = 2.47165e-05, No Iterations 76
DICPCG:  Solving for p, Initial residual = 5.72412e-05, Final residual = 9.95016e-06, No Iterations 27
time step continuity errors : sum local = 9.29071e-05, global = -1.73931e-05, cumulative = -0.0043519
DILUPBiCG:  Solving for epsilon, Initial residual = 0.000717552, Final residual = 3.7925e-07, No Iterations 3
DILUPBiCG:  Solving for k, Initial residual = 0.000898569, Final residual = 3.99485e-07, No Iterations 3
ExecutionTime = 1963.84 s  ClockTime = 2044 s

Time = 1002

DILUPBiCG:  Solving for Ux, Initial residual = 1.34986e-07, Final residual = 1.34986e-07, No Iterations 0
DILUPBiCG:  Solving for Uy, Initial residual = 1.30081e-07, Final residual = 1.30081e-07, No Iterations 0
DILUPBiCG:  Solving for Uz, Initial residual = 2.43777e-07, Final residual = 2.43777e-07, No Iterations 0
DICPCG:  Solving for p, Initial residual = 0.00100747, Final residual = 9.80885e-05, No Iterations 19
DICPCG:  Solving for p, Initial residual = 0.000245659, Final residual = 2.40597e-05, No Iterations 77
DICPCG:  Solving for p, Initial residual = 5.6801e-05, Final residual = 9.97753e-06, No Iterations 23
time step continuity errors : sum local = 9.31701e-05, global = -1.87521e-05, cumulative = -0.00437065
DILUPBiCG:  Solving for epsilon, Initial residual = 0.00071606, Final residual = 3.76874e-07, No Iterations 3
DILUPBiCG:  Solving for k, Initial residual = 0.000896314, Final residual = 3.98119e-07, No Iterations 3
ExecutionTime = 1965.53 s  ClockTime = 2046 s

Time = 1003

DILUPBiCG:  Solving for Ux, Initial residual = 1.34369e-07, Final residual = 1.34369e-07, No Iterations 0
DILUPBiCG:  Solving for Uy, Initial residual = 1.30144e-07, Final residual = 1.30144e-07, No Iterations 0
DILUPBiCG:  Solving for Uz, Initial residual = 2.42919e-07, Final residual = 2.42919e-07, No Iterations 0
DICPCG:  Solving for p, Initial residual = 0.00100419, Final residual = 9.66153e-05, No Iterations 19
DICPCG:  Solving for p, Initial residual = 0.000243802, Final residual = 2.41852e-05, No Iterations 77
DICPCG:  Solving for p, Initial residual = 5.65264e-05, Final residual = 9.96238e-06, No Iterations 231
time step continuity errors : sum local = 9.30387e-05, global = 1.87993e-07, cumulative = -0.00437046
DILUPBiCG:  Solving for epsilon, Initial residual = 0.000714668, Final residual = 3.76051e-07, No Iterations 3
DILUPBiCG:  Solving for k, Initial residual = 0.000894122, Final residual = 3.96653e-07, No Iterations 3
ExecutionTime = 1968.63 s  ClockTime = 2049 s

Time = 1004

DILUPBiCG:  Solving for Ux, Initial residual = 1.33768e-07, Final residual = 1.33768e-07, No Iterations 0
DILUPBiCG:  Solving for Uy, Initial residual = 1.30234e-07, Final residual = 1.30234e-07, No Iterations 0
DILUPBiCG:  Solving for Uz, Initial residual = 2.42104e-07, Final residual = 2.42104e-07, No Iterations 0
DICPCG:  Solving for p, Initial residual = 0.00100126, Final residual = 9.5862e-05, No Iterations 19
DICPCG:  Solving for p, Initial residual = 0.000242365, Final residual = 2.34433e-05, No Iterations 54
DICPCG:  Solving for p, Initial residual = 5.57967e-05, Final residual = 9.96702e-06, No Iterations 66
time step continuity errors : sum local = 9.32003e-05, global = -1.2341e-05, cumulative = -0.0043828
DILUPBiCG:  Solving for epsilon, Initial residual = 0.000713138, Final residual = 3.73023e-07, No Iterations 3
DILUPBiCG:  Solving for k, Initial residual = 0.000891857, Final residual = 3.95197e-07, No Iterations 3
ExecutionTime = 1970.47 s  ClockTime = 2051 s

Time = 1005

DILUPBiCG:  Solving for Ux, Initial residual = 1.33161e-07, Final residual = 1.33161e-07, No Iterations 0
DILUPBiCG:  Solving for Uy, Initial residual = 1.30295e-07, Final residual = 1.30295e-07, No Iterations 0
DILUPBiCG:  Solving for Uz, Initial residual = 2.4125e-07, Final residual = 2.4125e-07, No Iterations 0
DICPCG:  Solving for p, Initial residual = 0.00100231, Final residual = 9.41985e-05, No Iterations 19
DICPCG:  Solving for p, Initial residual = 0.000240935, Final residual = 2.33537e-05, No Iterations 50
DICPCG:  Solving for p, Initial residual = 5.54751e-05, Final residual = 9.40812e-06, No Iterations 69
time step continuity errors : sum local = 8.79853e-05, global = -1.08403e-05, cumulative = -0.00439364
DILUPBiCG:  Solving for epsilon, Initial residual = 0.000711676, Final residual = 3.72157e-07, No Iterations 3
DILUPBiCG:  Solving for k, Initial residual = 0.000889647, Final residual = 3.93732e-07, No Iterations 3
ExecutionTime = 1972.29 s  ClockTime = 2052 s

Time = 1006

DILUPBiCG:  Solving for Ux, Initial residual = 1.32563e-07, Final residual = 1.32563e-07, No Iterations 0
DILUPBiCG:  Solving for Uy, Initial residual = 1.3036e-07, Final residual = 1.3036e-07, No Iterations 0
DILUPBiCG:  Solving for Uz, Initial residual = 2.40406e-07, Final residual = 2.40406e-07, No Iterations 0
DICPCG:  Solving for p, Initial residual = 0.00100296, Final residual = 9.18861e-05, No Iterations 19
DICPCG:  Solving for p, Initial residual = 0.000238893, Final residual = 2.37398e-05, No Iterations 48
DICPCG:  Solving for p, Initial residual = 5.5061e-05, Final residual = 9.68793e-06, No Iterations 64
time step continuity errors : sum local = 9.06172e-05, global = -1.14395e-05, cumulative = -0.00440508
DILUPBiCG:  Solving for epsilon, Initial residual = 0.000710208, Final residual = 3.69648e-07, No Iterations 3
DILUPBiCG:  Solving for k, Initial residual = 0.00088744, Final residual = 3.92328e-07, No Iterations 3
ExecutionTime = 1974.05 s  ClockTime = 2054 s

Time = 1007

DILUPBiCG:  Solving for Ux, Initial residual = 1.31972e-07, Final residual = 1.31972e-07, No Iterations 0
DILUPBiCG:  Solving for Uy, Initial residual = 1.30425e-07, Final residual = 1.30425e-07, No Iterations 0
DILUPBiCG:  Solving for Uz, Initial residual = 2.39569e-07, Final residual = 2.39569e-07, No Iterations 0
DICPCG:  Solving for p, Initial residual = 0.000998295, Final residual = 9.14074e-05, No Iterations 19
DICPCG:  Solving for p, Initial residual = 0.000237853, Final residual = 2.27338e-05, No Iterations 48
DICPCG:  Solving for p, Initial residual = 5.39056e-05, Final residual = 9.66825e-06, No Iterations 63
time step continuity errors : sum local = 9.04496e-05, global = -1.17781e-05, cumulative = -0.00441686
DILUPBiCG:  Solving for epsilon, Initial residual = 0.000708746, Final residual = 3.67595e-07, No Iterations 3
DILUPBiCG:  Solving for k, Initial residual = 0.000885233, Final residual = 3.90934e-07, No Iterations 3
ExecutionTime = 1975.83 s  ClockTime = 2056 s


SIMPLE solution converged in 1007 iterations

End

Finalising parallel run
