/*---------------------------------------------------------------------------*\
  =========                 |
  \\      /  F ield         | OpenFOAM: The Open Source CFD Toolbox
   \\    /   O peration     | Website:  https://openfoam.org
    \\  /    A nd           | Version:  6
     \\/     M anipulation  |
\*---------------------------------------------------------------------------*/
Build  : 6
Exec   : bouSimpleFoam -parallel
Date   : Aug 07 2020
Time   : 01:04:28
Host   : "emps-ugcs1"
PID    : 32545
I/O    : uncollated
Case   : /home/links/jjw230/Optimisation_second_draft/Case5
nProcs : 4
Slaves : 
3
(
"emps-ugcs1.32546"
"emps-ugcs1.32547"
"emps-ugcs1.32548"
)

Pstream initialized with:
    floatTransfer      : 0
    nProcsSimpleSum    : 0
    commsType          : nonBlocking
    polling iterations : 0
sigFpe : Enabling floating point exception trapping (FOAM_SIGFPE).
fileModificationChecking : Monitoring run-time modified files using timeStampMaster (fileModificationSkew 10)
allowSystemOperations : Allowing user-supplied system call operations

// * * * * * * * * * * * * * * * * * * * * * * * * * * * * * * * * * * * * * //
Create time

Create mesh for time = 0


SIMPLE: Convergence criteria found
        p: tolerance 0.001
        U: tolerance 0.001
        "(k|epsilon)": tolerance 0.001
        theta: tolerance 0.001

Reading field p

Reading field U

Reading field theta

Reading/calculating face flux field phi

Selecting incompressible transport model Newtonian
Selecting turbulence model type RAS
Selecting RAS turbulence model RNGkEpsilon
RAS
{
    RASModel        RNGkEpsilon;
    turbulence      on;
    printCoeffs     on;
    Cmu             0.0845;
    C1              1.42;
    C2              1.68;
    C3              0;
    sigmak          0.71942;
    sigmaEps        0.71942;
    eta0            4.38;
    beta            0.012;
}

No MRF models present

Creating finite volume options from "system/fvOptions"

Selecting finite volume options model type explicitPorositySource
    Source: source0
    - selecting cells using cellZone cz_solid_0
    - selected 2072 cell(s) with volume 0.0021422
Porosity region source0:
    selecting model: DarcyForchheimer
    creating porous zone: cz_solid_0
Selecting finite volume options model type explicitPorositySource
    Source: source1
    - selecting cells using cellZone cz_solid_1
    - selected 2082 cell(s) with volume 0.00214498
Porosity region source1:
    selecting model: DarcyForchheimer
    creating porous zone: cz_solid_1
Selecting finite volume options model type explicitPorositySource
    Source: source2
    - selecting cells using cellZone cz_solid_2
    - selected 2030 cell(s) with volume 0.00214181
Porosity region source2:
    selecting model: DarcyForchheimer
    creating porous zone: cz_solid_2
Selecting finite volume options model type explicitPorositySource
    Source: source3
    - selecting cells using cellZone cz_solid_3
    - selected 1925 cell(s) with volume 0.00214378
Porosity region source3:
    selecting model: DarcyForchheimer
    creating porous zone: cz_solid_3
Selecting finite volume options model type explicitPorositySource
    Source: source4
    - selecting cells using cellZone cz_solid_4
    - selected 1344 cell(s) with volume 0.00213917
Porosity region source4:
    selecting model: DarcyForchheimer
    creating porous zone: cz_solid_4
Selecting finite volume options model type explicitPorositySource
    Source: source5
    - selecting cells using cellZone cz_solid_5
    - selected 2044 cell(s) with volume 0.00214212
Porosity region source5:
    selecting model: DarcyForchheimer
    creating porous zone: cz_solid_5
Selecting finite volume options model type explicitPorositySource
    Source: source6
    - selecting cells using cellZone cz_solid_6
    - selected 1960 cell(s) with volume 0.00214345
Porosity region source6:
    selecting model: DarcyForchheimer
    creating porous zone: cz_solid_6
Selecting finite volume options model type explicitPorositySource
    Source: source7
    - selecting cells using cellZone cz_solid_7
    - selected 2027 cell(s) with volume 0.00214444
Porosity region source7:
    selecting model: DarcyForchheimer
    creating porous zone: cz_solid_7
Selecting finite volume options model type explicitPorositySource
    Source: source8
    - selecting cells using cellZone cz_solid_8
    - selected 1456 cell(s) with volume 0.00213926
Porosity region source8:
    selecting model: DarcyForchheimer
    creating porous zone: cz_solid_8
Selecting finite volume options model type explicitPorositySource
    Source: source9
    - selecting cells using cellZone cz_solid_9
    - selected 2016 cell(s) with volume 0.00214424
Porosity region source9:
    selecting model: DarcyForchheimer
    creating porous zone: cz_solid_9
Selecting finite volume options model type explicitPorositySource
    Source: source10
    - selecting cells using cellZone cz_solid_10
    - selected 2017 cell(s) with volume 0.0021446
Porosity region source10:
    selecting model: DarcyForchheimer
    creating porous zone: cz_solid_10
Selecting finite volume options model type explicitPorositySource
    Source: source11
    - selecting cells using cellZone cz_solid_11
    - selected 2072 cell(s) with volume 0.00214146
Porosity region source11:
    selecting model: DarcyForchheimer
    creating porous zone: cz_solid_11
Selecting finite volume options model type explicitPorositySource
    Source: source12
    - selecting cells using cellZone cz_solid_12
    - selected 2149 cell(s) with volume 0.00214457
Porosity region source12:
    selecting model: DarcyForchheimer
    creating porous zone: cz_solid_12
Selecting finite volume options model type explicitPorositySource
    Source: source13
    - selecting cells using cellZone cz_solid_13
    - selected 1797 cell(s) with volume 0.00214266
Porosity region source13:
    selecting model: DarcyForchheimer
    creating porous zone: cz_solid_13
Selecting finite volume options model type explicitPorositySource
    Source: source14
    - selecting cells using cellZone cz_solid_14
    - selected 1915 cell(s) with volume 0.00214544
Porosity region source14:
    selecting model: DarcyForchheimer
    creating porous zone: cz_solid_14
Selecting finite volume options model type explicitPorositySource
    Source: source15
    - selecting cells using cellZone cz_solid_15
    - selected 1938 cell(s) with volume 0.00214283
Porosity region source15:
    selecting model: DarcyForchheimer
    creating porous zone: cz_solid_15
Selecting finite volume options model type explicitPorositySource
    Source: source16
    - selecting cells using cellZone cz_solid_16
    - selected 1789 cell(s) with volume 0.00214176
Porosity region source16:
    selecting model: DarcyForchheimer
    creating porous zone: cz_solid_16
Selecting finite volume options model type explicitPorositySource
    Source: source17
    - selecting cells using cellZone cz_solid_17
    - selected 1906 cell(s) with volume 0.00213773
Porosity region source17:
    selecting model: DarcyForchheimer
    creating porous zone: cz_solid_17
Selecting finite volume options model type explicitPorositySource
    Source: source18
    - selecting cells using cellZone cz_solid_18
    - selected 1915 cell(s) with volume 0.00214522
Porosity region source18:
    selecting model: DarcyForchheimer
    creating porous zone: cz_solid_18
Selecting finite volume options model type explicitPorositySource
    Source: source19
    - selecting cells using cellZone cz_solid_19
    - selected 1918 cell(s) with volume 0.00214436
Porosity region source19:
    selecting model: DarcyForchheimer
    creating porous zone: cz_solid_19
Selecting finite volume options model type explicitPorositySource
    Source: source20
    - selecting cells using cellZone cz_solid_20
    - selected 2192 cell(s) with volume 0.00214223
Porosity region source20:
    selecting model: DarcyForchheimer
    creating porous zone: cz_solid_20
Selecting finite volume options model type explicitPorositySource
    Source: source21
    - selecting cells using cellZone cz_solid_21
    - selected 2192 cell(s) with volume 0.00214395
Porosity region source21:
    selecting model: DarcyForchheimer
    creating porous zone: cz_solid_21
Selecting finite volume options model type explicitPorositySource
    Source: source22
    - selecting cells using cellZone cz_solid_22
    - selected 2150 cell(s) with volume 0.00214202
Porosity region source22:
    selecting model: DarcyForchheimer
    creating porous zone: cz_solid_22
Selecting finite volume options model type explicitPorositySource
    Source: source23
    - selecting cells using cellZone cz_solid_23
    - selected 2044 cell(s) with volume 0.0021438
Porosity region source23:
    selecting model: DarcyForchheimer
    creating porous zone: cz_solid_23
Selecting finite volume options model type explicitPorositySource
    Source: source24
    - selecting cells using cellZone cz_solid_24
    - selected 1436 cell(s) with volume 0.00213914
Porosity region source24:
    selecting model: DarcyForchheimer
    creating porous zone: cz_solid_24
Selecting finite volume options model type explicitPorositySource
    Source: source25
    - selecting cells using cellZone cz_solid_25
    - selected 2136 cell(s) with volume 0.00214237
Porosity region source25:
    selecting model: DarcyForchheimer
    creating porous zone: cz_solid_25
Selecting finite volume options model type explicitPorositySource
    Source: source26
    - selecting cells using cellZone cz_solid_26
    - selected 2080 cell(s) with volume 0.00214367
Porosity region source26:
    selecting model: DarcyForchheimer
    creating porous zone: cz_solid_26
Selecting finite volume options model type explicitPorositySource
    Source: source27
    - selecting cells using cellZone cz_solid_27
    - selected 2122 cell(s) with volume 0.00214403
Porosity region source27:
    selecting model: DarcyForchheimer
    creating porous zone: cz_solid_27
Selecting finite volume options model type explicitPorositySource
    Source: source28
    - selecting cells using cellZone cz_solid_28
    - selected 1548 cell(s) with volume 0.00213973
Porosity region source28:
    selecting model: DarcyForchheimer
    creating porous zone: cz_solid_28
Selecting finite volume options model type explicitPorositySource
    Source: source29
    - selecting cells using cellZone cz_solid_29
    - selected 2080 cell(s) with volume 0.00214386
Porosity region source29:
    selecting model: DarcyForchheimer
    creating porous zone: cz_solid_29
Selecting finite volume options model type explicitPorositySource
    Source: source30
    - selecting cells using cellZone cz_solid_30
    - selected 2114 cell(s) with volume 0.00214488
Porosity region source30:
    selecting model: DarcyForchheimer
    creating porous zone: cz_solid_30
Selecting finite volume options model type explicitPorositySource
    Source: source31
    - selecting cells using cellZone cz_solid_31
    - selected 2192 cell(s) with volume 0.00214175
Porosity region source31:
    selecting model: DarcyForchheimer
    creating porous zone: cz_solid_31
Selecting finite volume options model type explicitPorositySource
    Source: source32
    - selecting cells using cellZone cz_solid_32
    - selected 2268 cell(s) with volume 0.00214489
Porosity region source32:
    selecting model: DarcyForchheimer
    creating porous zone: cz_solid_32
Selecting finite volume options model type explicitPorositySource
    Source: source33
    - selecting cells using cellZone cz_solid_33
    - selected 1858 cell(s) with volume 0.00214259
Porosity region source33:
    selecting model: DarcyForchheimer
    creating porous zone: cz_solid_33
Selecting finite volume options model type explicitPorositySource
    Source: source34
    - selecting cells using cellZone cz_solid_34
    - selected 1994 cell(s) with volume 0.00214522
Porosity region source34:
    selecting model: DarcyForchheimer
    creating porous zone: cz_solid_34
Selecting finite volume options model type explicitPorositySource
    Source: source35
    - selecting cells using cellZone cz_solid_35
    - selected 2080 cell(s) with volume 0.00214326
Porosity region source35:
    selecting model: DarcyForchheimer
    creating porous zone: cz_solid_35
Selecting finite volume options model type explicitPorositySource
    Source: source36
    - selecting cells using cellZone cz_solid_36
    - selected 1858 cell(s) with volume 0.00214219
Porosity region source36:
    selecting model: DarcyForchheimer
    creating porous zone: cz_solid_36
Selecting finite volume options model type explicitPorositySource
    Source: source37
    - selecting cells using cellZone cz_solid_37
    - selected 2022 cell(s) with volume 0.00213931
Porosity region source37:
    selecting model: DarcyForchheimer
    creating porous zone: cz_solid_37
Selecting finite volume options model type explicitPorositySource
    Source: source38
    - selecting cells using cellZone cz_solid_38
    - selected 1978 cell(s) with volume 0.00214494
Porosity region source38:
    selecting model: DarcyForchheimer
    creating porous zone: cz_solid_38
Selecting finite volume options model type explicitPorositySource
    Source: source39
    - selecting cells using cellZone cz_solid_39
    - selected 2010 cell(s) with volume 0.00214507
Porosity region source39:
    selecting model: DarcyForchheimer
    creating porous zone: cz_solid_39
Selecting finite volume options model type explicitPorositySource
    Source: source40
    - selecting cells using cellZone cz_solid_40
    - selected 2072 cell(s) with volume 0.00214202
Porosity region source40:
    selecting model: DarcyForchheimer
    creating porous zone: cz_solid_40
Selecting finite volume options model type explicitPorositySource
    Source: source41
    - selecting cells using cellZone cz_solid_41
    - selected 2100 cell(s) with volume 0.0021437
Porosity region source41:
    selecting model: DarcyForchheimer
    creating porous zone: cz_solid_41
Selecting finite volume options model type explicitPorositySource
    Source: source42
    - selecting cells using cellZone cz_solid_42
    - selected 2030 cell(s) with volume 0.00214187
Porosity region source42:
    selecting model: DarcyForchheimer
    creating porous zone: cz_solid_42
Selecting finite volume options model type explicitPorositySource
    Source: source43
    - selecting cells using cellZone cz_solid_43
    - selected 1925 cell(s) with volume 0.00214351
Porosity region source43:
    selecting model: DarcyForchheimer
    creating porous zone: cz_solid_43
Selecting finite volume options model type explicitPorositySource
    Source: source44
    - selecting cells using cellZone cz_solid_44
    - selected 1344 cell(s) with volume 0.00213903
Porosity region source44:
    selecting model: DarcyForchheimer
    creating porous zone: cz_solid_44
Selecting finite volume options model type explicitPorositySource
    Source: source45
    - selecting cells using cellZone cz_solid_45
    - selected 2044 cell(s) with volume 0.00214219
Porosity region source45:
    selecting model: DarcyForchheimer
    creating porous zone: cz_solid_45
Selecting finite volume options model type explicitPorositySource
    Source: source46
    - selecting cells using cellZone cz_solid_46
    - selected 1960 cell(s) with volume 0.00214346
Porosity region source46:
    selecting model: DarcyForchheimer
    creating porous zone: cz_solid_46
Selecting finite volume options model type explicitPorositySource
    Source: source47
    - selecting cells using cellZone cz_solid_47
    - selected 2030 cell(s) with volume 0.00214389
Porosity region source47:
    selecting model: DarcyForchheimer
    creating porous zone: cz_solid_47
Selecting finite volume options model type explicitPorositySource
    Source: source48
    - selecting cells using cellZone cz_solid_48
    - selected 1456 cell(s) with volume 0.00213947
Porosity region source48:
    selecting model: DarcyForchheimer
    creating porous zone: cz_solid_48
Selecting finite volume options model type explicitPorositySource
    Source: source49
    - selecting cells using cellZone cz_solid_49
    - selected 1960 cell(s) with volume 0.00214378
Porosity region source49:
    selecting model: DarcyForchheimer
    creating porous zone: cz_solid_49
Selecting finite volume options model type explicitPorositySource
    Source: source50
    - selecting cells using cellZone cz_solid_50
    - selected 1993 cell(s) with volume 0.00214497
Porosity region source50:
    selecting model: DarcyForchheimer
    creating porous zone: cz_solid_50
Selecting finite volume options model type explicitPorositySource
    Source: source51
    - selecting cells using cellZone cz_solid_51
    - selected 2072 cell(s) with volume 0.00214126
Porosity region source51:
    selecting model: DarcyForchheimer
    creating porous zone: cz_solid_51
Selecting finite volume options model type explicitPorositySource
    Source: source52
    - selecting cells using cellZone cz_solid_52
    - selected 2149 cell(s) with volume 0.00214486
Porosity region source52:
    selecting model: DarcyForchheimer
    creating porous zone: cz_solid_52
Selecting finite volume options model type explicitPorositySource
    Source: source53
    - selecting cells using cellZone cz_solid_53
    - selected 1801 cell(s) with volume 0.00214261
Porosity region source53:
    selecting model: DarcyForchheimer
    creating porous zone: cz_solid_53
Selecting finite volume options model type explicitPorositySource
    Source: source54
    - selecting cells using cellZone cz_solid_54
    - selected 1894 cell(s) with volume 0.00214495
Porosity region source54:
    selecting model: DarcyForchheimer
    creating porous zone: cz_solid_54
Selecting finite volume options model type explicitPorositySource
    Source: source55
    - selecting cells using cellZone cz_solid_55
    - selected 1938 cell(s) with volume 0.00214264
Porosity region source55:
    selecting model: DarcyForchheimer
    creating porous zone: cz_solid_55
Selecting finite volume options model type explicitPorositySource
    Source: source56
    - selecting cells using cellZone cz_solid_56
    - selected 1793 cell(s) with volume 0.00214213
Porosity region source56:
    selecting model: DarcyForchheimer
    creating porous zone: cz_solid_56
Selecting finite volume options model type explicitPorositySource
    Source: source57
    - selecting cells using cellZone cz_solid_57
    - selected 1896 cell(s) with volume 0.0021382
Porosity region source57:
    selecting model: DarcyForchheimer
    creating porous zone: cz_solid_57
Selecting finite volume options model type explicitPorositySource
    Source: source58
    - selecting cells using cellZone cz_solid_58
    - selected 1894 cell(s) with volume 0.00214471
Porosity region source58:
    selecting model: DarcyForchheimer
    creating porous zone: cz_solid_58
Selecting finite volume options model type explicitPorositySource
    Source: source59
    - selecting cells using cellZone cz_solid_59
    - selected 1918 cell(s) with volume 0.00214468
Porosity region source59:
    selecting model: DarcyForchheimer
    creating porous zone: cz_solid_59
Selecting finite volume options model type explicitPorositySource
    Source: source60
    - selecting cells using cellZone cz_solid_60
    - selected 2100 cell(s) with volume 0.00214191
Porosity region source60:
    selecting model: DarcyForchheimer
    creating porous zone: cz_solid_60
Selecting finite volume options model type explicitPorositySource
    Source: source61
    - selecting cells using cellZone cz_solid_61
    - selected 2100 cell(s) with volume 0.00214382
Porosity region source61:
    selecting model: DarcyForchheimer
    creating porous zone: cz_solid_61
Selecting finite volume options model type explicitPorositySource
    Source: source62
    - selecting cells using cellZone cz_solid_62
    - selected 2058 cell(s) with volume 0.0021416
Porosity region source62:
    selecting model: DarcyForchheimer
    creating porous zone: cz_solid_62
Selecting finite volume options model type explicitPorositySource
    Source: source63
    - selecting cells using cellZone cz_solid_63
    - selected 1946 cell(s) with volume 0.00214346
Porosity region source63:
    selecting model: DarcyForchheimer
    creating porous zone: cz_solid_63
Selecting finite volume options model type explicitPorositySource
    Source: source64
    - selecting cells using cellZone cz_solid_64
    - selected 1322 cell(s) with volume 0.00213909
Porosity region source64:
    selecting model: DarcyForchheimer
    creating porous zone: cz_solid_64
Selecting finite volume options model type explicitPorositySource
    Source: source65
    - selecting cells using cellZone cz_solid_65
    - selected 2044 cell(s) with volume 0.00214198
Porosity region source65:
    selecting model: DarcyForchheimer
    creating porous zone: cz_solid_65
Selecting finite volume options model type explicitPorositySource
    Source: source66
    - selecting cells using cellZone cz_solid_66
    - selected 1988 cell(s) with volume 0.00214326
Porosity region source66:
    selecting model: DarcyForchheimer
    creating porous zone: cz_solid_66
Selecting finite volume options model type explicitPorositySource
    Source: source67
    - selecting cells using cellZone cz_solid_67
    - selected 2037 cell(s) with volume 0.00214358
Porosity region source67:
    selecting model: DarcyForchheimer
    creating porous zone: cz_solid_67
Selecting finite volume options model type explicitPorositySource
    Source: source68
    - selecting cells using cellZone cz_solid_68
    - selected 1434 cell(s) with volume 0.00213937
Porosity region source68:
    selecting model: DarcyForchheimer
    creating porous zone: cz_solid_68
Selecting finite volume options model type explicitPorositySource
    Source: source69
    - selecting cells using cellZone cz_solid_69
    - selected 2016 cell(s) with volume 0.00214352
Porosity region source69:
    selecting model: DarcyForchheimer
    creating porous zone: cz_solid_69
Selecting finite volume options model type explicitPorositySource
    Source: source70
    - selecting cells using cellZone cz_solid_70
    - selected 2028 cell(s) with volume 0.00214495
Porosity region source70:
    selecting model: DarcyForchheimer
    creating porous zone: cz_solid_70
Selecting finite volume options model type explicitPorositySource
    Source: source71
    - selecting cells using cellZone cz_solid_71
    - selected 2093 cell(s) with volume 0.00214123
Porosity region source71:
    selecting model: DarcyForchheimer
    creating porous zone: cz_solid_71
Selecting finite volume options model type explicitPorositySource
    Source: source72
    - selecting cells using cellZone cz_solid_72
    - selected 2170 cell(s) with volume 0.00214459
Porosity region source72:
    selecting model: DarcyForchheimer
    creating porous zone: cz_solid_72
Selecting finite volume options model type explicitPorositySource
    Source: source73
    - selecting cells using cellZone cz_solid_73
    - selected 1781 cell(s) with volume 0.00214201
Porosity region source73:
    selecting model: DarcyForchheimer
    creating porous zone: cz_solid_73
Selecting finite volume options model type explicitPorositySource
    Source: source74
    - selecting cells using cellZone cz_solid_74
    - selected 1907 cell(s) with volume 0.00214487
Porosity region source74:
    selecting model: DarcyForchheimer
    creating porous zone: cz_solid_74
Selecting finite volume options model type explicitPorositySource
    Source: source75
    - selecting cells using cellZone cz_solid_75
    - selected 1988 cell(s) with volume 0.00214283
Porosity region source75:
    selecting model: DarcyForchheimer
    creating porous zone: cz_solid_75
Selecting finite volume options model type explicitPorositySource
    Source: source76
    - selecting cells using cellZone cz_solid_76
    - selected 1781 cell(s) with volume 0.00214173
Porosity region source76:
    selecting model: DarcyForchheimer
    creating porous zone: cz_solid_76
Selecting finite volume options model type explicitPorositySource
    Source: source77
    - selecting cells using cellZone cz_solid_77
    - selected 1872 cell(s) with volume 0.00213816
Porosity region source77:
    selecting model: DarcyForchheimer
    creating porous zone: cz_solid_77
Selecting finite volume options model type explicitPorositySource
    Source: source78
    - selecting cells using cellZone cz_solid_78
    - selected 1900 cell(s) with volume 0.00214443
Porosity region source78:
    selecting model: DarcyForchheimer
    creating porous zone: cz_solid_78
Selecting finite volume options model type explicitPorositySource
    Source: source79
    - selecting cells using cellZone cz_solid_79
    - selected 1925 cell(s) with volume 0.00214443
Porosity region source79:
    selecting model: DarcyForchheimer
    creating porous zone: cz_solid_79
Selecting finite volume options model type explicitPorositySource
    Source: source80
    - selecting cells using cellZone cz_solid_80
    - selected 2123 cell(s) with volume 0.00214172
Porosity region source80:
    selecting model: DarcyForchheimer
    creating porous zone: cz_solid_80
Selecting finite volume options model type explicitPorositySource
    Source: source81
    - selecting cells using cellZone cz_solid_81
    - selected 2123 cell(s) with volume 0.00214356
Porosity region source81:
    selecting model: DarcyForchheimer
    creating porous zone: cz_solid_81
Selecting finite volume options model type explicitPorositySource
    Source: source82
    - selecting cells using cellZone cz_solid_82
    - selected 2084 cell(s) with volume 0.00214158
Porosity region source82:
    selecting model: DarcyForchheimer
    creating porous zone: cz_solid_82
Selecting finite volume options model type explicitPorositySource
    Source: source83
    - selecting cells using cellZone cz_solid_83
    - selected 1976 cell(s) with volume 0.00214321
Porosity region source83:
    selecting model: DarcyForchheimer
    creating porous zone: cz_solid_83
Selecting finite volume options model type explicitPorositySource
    Source: source84
    - selecting cells using cellZone cz_solid_84
    - selected 1400 cell(s) with volume 0.00213971
Porosity region source84:
    selecting model: DarcyForchheimer
    creating porous zone: cz_solid_84
Selecting finite volume options model type explicitPorositySource
    Source: source85
    - selecting cells using cellZone cz_solid_85
    - selected 2036 cell(s) with volume 0.00214196
Porosity region source85:
    selecting model: DarcyForchheimer
    creating porous zone: cz_solid_85
Selecting finite volume options model type explicitPorositySource
    Source: source86
    - selecting cells using cellZone cz_solid_86
    - selected 2025 cell(s) with volume 0.00214294
Porosity region source86:
    selecting model: DarcyForchheimer
    creating porous zone: cz_solid_86
Selecting finite volume options model type explicitPorositySource
    Source: source87
    - selecting cells using cellZone cz_solid_87
    - selected 2069 cell(s) with volume 0.00214353
Porosity region source87:
    selecting model: DarcyForchheimer
    creating porous zone: cz_solid_87
Selecting finite volume options model type explicitPorositySource
    Source: source88
    - selecting cells using cellZone cz_solid_88
    - selected 1505 cell(s) with volume 0.00213973
Porosity region source88:
    selecting model: DarcyForchheimer
    creating porous zone: cz_solid_88
Selecting finite volume options model type explicitPorositySource
    Source: source89
    - selecting cells using cellZone cz_solid_89
    - selected 2053 cell(s) with volume 0.0021433
Porosity region source89:
    selecting model: DarcyForchheimer
    creating porous zone: cz_solid_89
Selecting finite volume options model type explicitPorositySource
    Source: source90
    - selecting cells using cellZone cz_solid_90
    - selected 2054 cell(s) with volume 0.00214464
Porosity region source90:
    selecting model: DarcyForchheimer
    creating porous zone: cz_solid_90
Selecting finite volume options model type explicitPorositySource
    Source: source91
    - selecting cells using cellZone cz_solid_91
    - selected 2116 cell(s) with volume 0.00214089
Porosity region source91:
    selecting model: DarcyForchheimer
    creating porous zone: cz_solid_91
Selecting finite volume options model type explicitPorositySource
    Source: source92
    - selecting cells using cellZone cz_solid_92
    - selected 2186 cell(s) with volume 0.00214465
Porosity region source92:
    selecting model: DarcyForchheimer
    creating porous zone: cz_solid_92
Selecting finite volume options model type explicitPorositySource
    Source: source93
    - selecting cells using cellZone cz_solid_93
    - selected 1800 cell(s) with volume 0.00214235
Porosity region source93:
    selecting model: DarcyForchheimer
    creating porous zone: cz_solid_93
Selecting finite volume options model type explicitPorositySource
    Source: source94
    - selecting cells using cellZone cz_solid_94
    - selected 1916 cell(s) with volume 0.0021447
Porosity region source94:
    selecting model: DarcyForchheimer
    creating porous zone: cz_solid_94
Selecting finite volume options model type explicitPorositySource
    Source: source95
    - selecting cells using cellZone cz_solid_95
    - selected 2014 cell(s) with volume 0.00214268
Porosity region source95:
    selecting model: DarcyForchheimer
    creating porous zone: cz_solid_95
Selecting finite volume options model type explicitPorositySource
    Source: source96
    - selecting cells using cellZone cz_solid_96
    - selected 1800 cell(s) with volume 0.0021418
Porosity region source96:
    selecting model: DarcyForchheimer
    creating porous zone: cz_solid_96
Selecting finite volume options model type explicitPorositySource
    Source: source97
    - selecting cells using cellZone cz_solid_97
    - selected 1902 cell(s) with volume 0.00213828
Porosity region source97:
    selecting model: DarcyForchheimer
    creating porous zone: cz_solid_97
Selecting finite volume options model type explicitPorositySource
    Source: source98
    - selecting cells using cellZone cz_solid_98
    - selected 1930 cell(s) with volume 0.00214477
Porosity region source98:
    selecting model: DarcyForchheimer
    creating porous zone: cz_solid_98
Selecting finite volume options model type explicitPorositySource
    Source: source99
    - selecting cells using cellZone cz_solid_99
    - selected 1937 cell(s) with volume 0.00214442
Porosity region source99:
    selecting model: DarcyForchheimer
    creating porous zone: cz_solid_99

Starting time loop

forces porousforces:
--> FOAM Warning : 
    From function Foam::labelHashSet Foam::polyBoundaryMesh::patchSet(const Foam::UList<Foam::wordRe>&, bool, bool) const
    in file meshes/polyMesh/polyBoundaryMesh/polyBoundaryMesh.C at line 798
    Cannot find any patch or group names matching solid_to_fluid
    Including porosity effects


surfaceFieldValue massFlowAtFilter_0:
    total faces  = 1654
    total area   = 0.10167




surfaceFieldValue massFlowAtFilter_1:
    total faces  = 1722
    total area   = 0.10166




surfaceFieldValue massFlowAtFilter_2:
    total faces  = 1616
    total area   = 0.101679




surfaceFieldValue massFlowAtFilter_3:
    total faces  = 1674
    total area   = 0.101747




surfaceFieldValue massFlowAtFilter_4:
    total faces  = 1414
    total area   = 0.101634




surfaceFieldValue massFlowAtFilter_5:
    total faces  = 1618
    total area   = 0.101692




surfaceFieldValue massFlowAtFilter_6:
    total faces  = 1676
    total area   = 0.101742




surfaceFieldValue massFlowAtFilter_7:
    total faces  = 1641
    total area   = 0.101665




surfaceFieldValue massFlowAtFilter_8:
    total faces  = 1414
    total area   = 0.101649




surfaceFieldValue massFlowAtFilter_9:
    total faces  = 1700
    total area   = 0.101771




surfaceFieldValue massFlowAtFilter_10:
    total faces  = 1732
    total area   = 0.101668




surfaceFieldValue massFlowAtFilter_11:
    total faces  = 1724
    total area   = 0.101627




surfaceFieldValue massFlowAtFilter_12:
    total faces  = 1722
    total area   = 0.101674




surfaceFieldValue massFlowAtFilter_13:
    total faces  = 1610
    total area   = 0.101708




surfaceFieldValue massFlowAtFilter_14:
    total faces  = 1729
    total area   = 0.1017




surfaceFieldValue massFlowAtFilter_15:
    total faces  = 1648
    total area   = 0.101657




surfaceFieldValue massFlowAtFilter_16:
    total faces  = 1604
    total area   = 0.101693




surfaceFieldValue massFlowAtFilter_17:
    total faces  = 1552
    total area   = 0.101652




surfaceFieldValue massFlowAtFilter_18:
    total faces  = 1725
    total area   = 0.101696




surfaceFieldValue massFlowAtFilter_19:
    total faces  = 1646
    total area   = 0.101719




surfaceFieldValue massFlowAtFilter_20:
    total faces  = 1696
    total area   = 0.10165




surfaceFieldValue massFlowAtFilter_21:
    total faces  = 1768
    total area   = 0.101625




surfaceFieldValue massFlowAtFilter_22:
    total faces  = 1658
    total area   = 0.101645




surfaceFieldValue massFlowAtFilter_23:
    total faces  = 1718
    total area   = 0.101654




surfaceFieldValue massFlowAtFilter_24:
    total faces  = 1460
    total area   = 0.101582




surfaceFieldValue massFlowAtFilter_25:
    total faces  = 1660
    total area   = 0.101656




surfaceFieldValue massFlowAtFilter_26:
    total faces  = 1720
    total area   = 0.101695




surfaceFieldValue massFlowAtFilter_27:
    total faces  = 1680
    total area   = 0.101625




surfaceFieldValue massFlowAtFilter_28:
    total faces  = 1460
    total area   = 0.101593




surfaceFieldValue massFlowAtFilter_29:
    total faces  = 1720
    total area   = 0.101704




surfaceFieldValue massFlowAtFilter_30:
    total faces  = 1784
    total area   = 0.101629




surfaceFieldValue massFlowAtFilter_31:
    total faces  = 1768
    total area   = 0.10164




surfaceFieldValue massFlowAtFilter_32:
    total faces  = 1766
    total area   = 0.101616




surfaceFieldValue massFlowAtFilter_33:
    total faces  = 1636
    total area   = 0.101691




surfaceFieldValue massFlowAtFilter_34:
    total faces  = 1782
    total area   = 0.101627




surfaceFieldValue massFlowAtFilter_35:
    total faces  = 1698
    total area   = 0.101619




surfaceFieldValue massFlowAtFilter_36:
    total faces  = 1636
    total area   = 0.101688




surfaceFieldValue massFlowAtFilter_37:
    total faces  = 1600
    total area   = 0.101623




surfaceFieldValue massFlowAtFilter_38:
    total faces  = 1778
    total area   = 0.101659




surfaceFieldValue massFlowAtFilter_39:
    total faces  = 1690
    total area   = 0.101657




surfaceFieldValue massFlowAtFilter_40:
    total faces  = 1654
    total area   = 0.101696




surfaceFieldValue massFlowAtFilter_41:
    total faces  = 1724
    total area   = 0.10168




surfaceFieldValue massFlowAtFilter_42:
    total faces  = 1616
    total area   = 0.101693




surfaceFieldValue massFlowAtFilter_43:
    total faces  = 1674
    total area   = 0.101778




surfaceFieldValue massFlowAtFilter_44:
    total faces  = 1414
    total area   = 0.101639




surfaceFieldValue massFlowAtFilter_45:
    total faces  = 1618
    total area   = 0.101701




surfaceFieldValue massFlowAtFilter_46:
    total faces  = 1676
    total area   = 0.101781




surfaceFieldValue massFlowAtFilter_47:
    total faces  = 1636
    total area   = 0.101695




surfaceFieldValue massFlowAtFilter_48:
    total faces  = 1414
    total area   = 0.101655




surfaceFieldValue massFlowAtFilter_49:
    total faces  = 1676
    total area   = 0.101768




surfaceFieldValue massFlowAtFilter_50:
    total faces  = 1740
    total area   = 0.101709




surfaceFieldValue massFlowAtFilter_51:
    total faces  = 1724
    total area   = 0.101697




surfaceFieldValue massFlowAtFilter_52:
    total faces  = 1722
    total area   = 0.101709




surfaceFieldValue massFlowAtFilter_53:
    total faces  = 1610
    total area   = 0.101751




surfaceFieldValue massFlowAtFilter_54:
    total faces  = 1736
    total area   = 0.101706




surfaceFieldValue massFlowAtFilter_55:
    total faces  = 1648
    total area   = 0.101694




surfaceFieldValue massFlowAtFilter_56:
    total faces  = 1604
    total area   = 0.101737




surfaceFieldValue massFlowAtFilter_57:
    total faces  = 1536
    total area   = 0.101683




surfaceFieldValue massFlowAtFilter_58:
    total faces  = 1732
    total area   = 0.101747




surfaceFieldValue massFlowAtFilter_59:
    total faces  = 1646
    total area   = 0.101728




surfaceFieldValue massFlowAtFilter_60:
    total faces  = 1654
    total area   = 0.1017




surfaceFieldValue massFlowAtFilter_61:
    total faces  = 1724
    total area   = 0.101694




surfaceFieldValue massFlowAtFilter_62:
    total faces  = 1616
    total area   = 0.101698




surfaceFieldValue massFlowAtFilter_63:
    total faces  = 1674
    total area   = 0.101794




surfaceFieldValue massFlowAtFilter_64:
    total faces  = 1400
    total area   = 0.101637




surfaceFieldValue massFlowAtFilter_65:
    total faces  = 1618
    total area   = 0.101707




surfaceFieldValue massFlowAtFilter_66:
    total faces  = 1676
    total area   = 0.101779




surfaceFieldValue massFlowAtFilter_67:
    total faces  = 1639
    total area   = 0.101711




surfaceFieldValue massFlowAtFilter_68:
    total faces  = 1400
    total area   = 0.101644




surfaceFieldValue massFlowAtFilter_69:
    total faces  = 1688
    total area   = 0.101795




surfaceFieldValue massFlowAtFilter_70:
    total faces  = 1736
    total area   = 0.101722




surfaceFieldValue massFlowAtFilter_71:
    total faces  = 1724
    total area   = 0.101706




surfaceFieldValue massFlowAtFilter_72:
    total faces  = 1722
    total area   = 0.101716




surfaceFieldValue massFlowAtFilter_73:
    total faces  = 1595
    total area   = 0.101756




surfaceFieldValue massFlowAtFilter_74:
    total faces  = 1734
    total area   = 0.101708




surfaceFieldValue massFlowAtFilter_75:
    total faces  = 1654
    total area   = 0.101716




surfaceFieldValue massFlowAtFilter_76:
    total faces  = 1595
    total area   = 0.101755




surfaceFieldValue massFlowAtFilter_77:
    total faces  = 1526
    total area   = 0.101682




surfaceFieldValue massFlowAtFilter_78:
    total faces  = 1730
    total area   = 0.101788




surfaceFieldValue massFlowAtFilter_79:
    total faces  = 1646
    total area   = 0.101737




surfaceFieldValue massFlowAtFilter_80:
    total faces  = 1661
    total area   = 0.101697




surfaceFieldValue massFlowAtFilter_81:
    total faces  = 1731
    total area   = 0.101666




surfaceFieldValue massFlowAtFilter_82:
    total faces  = 1626
    total area   = 0.101702




surfaceFieldValue massFlowAtFilter_83:
    total faces  = 1684
    total area   = 0.10171




surfaceFieldValue massFlowAtFilter_84:
    total faces  = 1446
    total area   = 0.101626




surfaceFieldValue massFlowAtFilter_85:
    total faces  = 1624
    total area   = 0.101702




surfaceFieldValue massFlowAtFilter_86:
    total faces  = 1686
    total area   = 0.101697




surfaceFieldValue massFlowAtFilter_87:
    total faces  = 1651
    total area   = 0.1017




surfaceFieldValue massFlowAtFilter_88:
    total faces  = 1446
    total area   = 0.101605




surfaceFieldValue massFlowAtFilter_89:
    total faces  = 1698
    total area   = 0.101712




surfaceFieldValue massFlowAtFilter_90:
    total faces  = 1742
    total area   = 0.101702




surfaceFieldValue massFlowAtFilter_91:
    total faces  = 1731
    total area   = 0.101654




surfaceFieldValue massFlowAtFilter_92:
    total faces  = 1729
    total area   = 0.101679




surfaceFieldValue massFlowAtFilter_93:
    total faces  = 1610
    total area   = 0.10173




surfaceFieldValue massFlowAtFilter_94:
    total faces  = 1741
    total area   = 0.101706




surfaceFieldValue massFlowAtFilter_95:
    total faces  = 1669
    total area   = 0.101688




surfaceFieldValue massFlowAtFilter_96:
    total faces  = 1610
    total area   = 0.101713




surfaceFieldValue massFlowAtFilter_97:
    total faces  = 1529
    total area   = 0.10168




surfaceFieldValue massFlowAtFilter_98:
    total faces  = 1737
    total area   = 0.10179




surfaceFieldValue massFlowAtFilter_99:
    total faces  = 1658
    total area   = 0.10172


Time = 1

DILUPBiCG:  Solving for Ux, Initial residual = 1, Final residual = 2.98673e-06, No Iterations 5
DILUPBiCG:  Solving for Uy, Initial residual = 1, Final residual = 6.1475e-06, No Iterations 6
DILUPBiCG:  Solving for Uz, Initial residual = 1, Final residual = 7.03196e-06, No Iterations 5
DICPCG:  Solving for p, Initial residual = 1, Final residual = 0.0966469, No Iterations 313
DICPCG:  Solving for p, Initial residual = 0.00360054, Final residual = 0.000279014, No Iterations 4
DICPCG:  Solving for p, Initial residual = 0.000506698, Final residual = 4.9597e-05, No Iterations 36
time step continuity errors : sum local = 0.0510576, global = -0.000310764, cumulative = -0.000310764
DILUPBiCG:  Solving for epsilon, Initial residual = 0.0489425, Final residual = 1.38977e-06, No Iterations 4
DILUPBiCG:  Solving for k, Initial residual = 1, Final residual = 1.13425e-07, No Iterations 7
ExecutionTime = 5.63 s  ClockTime = 5 s

Time = 2

DILUPBiCG:  Solving for Ux, Initial residual = 0.000118746, Final residual = 3.57711e-06, No Iterations 2
DILUPBiCG:  Solving for Uy, Initial residual = 5.29185e-05, Final residual = 2.71592e-07, No Iterations 3
DILUPBiCG:  Solving for Uz, Initial residual = 0.000109245, Final residual = 2.17135e-06, No Iterations 2
DICPCG:  Solving for p, Initial residual = 0.00929763, Final residual = 0.000920521, No Iterations 126
DICPCG:  Solving for p, Initial residual = 0.00542831, Final residual = 0.000539232, No Iterations 7
DICPCG:  Solving for p, Initial residual = 0.00083447, Final residual = 7.97813e-05, No Iterations 281
time step continuity errors : sum local = 0.022256, global = 6.07582e-05, cumulative = -0.000250006
DILUPBiCG:  Solving for epsilon, Initial residual = 0.0135799, Final residual = 8.40128e-07, No Iterations 4
DILUPBiCG:  Solving for k, Initial residual = 0.517068, Final residual = 7.22758e-07, No Iterations 6
ExecutionTime = 9.76 s  ClockTime = 10 s

Time = 3

DILUPBiCG:  Solving for Ux, Initial residual = 1.80306e-05, Final residual = 3.13057e-06, No Iterations 1
DILUPBiCG:  Solving for Uy, Initial residual = 1.11129e-05, Final residual = 2.16544e-06, No Iterations 1
DILUPBiCG:  Solving for Uz, Initial residual = 2.64395e-05, Final residual = 7.81748e-06, No Iterations 1
DICPCG:  Solving for p, Initial residual = 0.0186184, Final residual = 0.00183911, No Iterations 294
DICPCG:  Solving for p, Initial residual = 0.00736675, Final residual = 0.000734117, No Iterations 3
DICPCG:  Solving for p, Initial residual = 0.00105413, Final residual = 0.000105048, No Iterations 47
time step continuity errors : sum local = 0.0570262, global = 0.000257, cumulative = 6.99361e-06
DILUPBiCG:  Solving for epsilon, Initial residual = 0.0182048, Final residual = 1.12809e-06, No Iterations 4
DILUPBiCG:  Solving for k, Initial residual = 0.260827, Final residual = 2.2273e-07, No Iterations 6
ExecutionTime = 13.36 s  ClockTime = 13 s

Time = 4

DILUPBiCG:  Solving for Ux, Initial residual = 4.79792e-06, Final residual = 4.79792e-06, No Iterations 0
DILUPBiCG:  Solving for Uy, Initial residual = 1.85475e-06, Final residual = 1.85475e-06, No Iterations 0
DILUPBiCG:  Solving for Uz, Initial residual = 6.26406e-06, Final residual = 6.26406e-06, No Iterations 0
DICPCG:  Solving for p, Initial residual = 0.0776182, Final residual = 0.00732666, No Iterations 302
DICPCG:  Solving for p, Initial residual = 0.00523756, Final residual = 0.000493639, No Iterations 3
DICPCG:  Solving for p, Initial residual = 0.000723274, Final residual = 6.55206e-05, No Iterations 47
time step continuity errors : sum local = 0.0334172, global = 0.000143183, cumulative = 0.000150176
DILUPBiCG:  Solving for epsilon, Initial residual = 0.0172972, Final residual = 5.75672e-06, No Iterations 3
DILUPBiCG:  Solving for k, Initial residual = 0.153731, Final residual = 8.32103e-07, No Iterations 5
ExecutionTime = 16.77 s  ClockTime = 17 s

Time = 5

DILUPBiCG:  Solving for Ux, Initial residual = 1.45404e-05, Final residual = 2.97178e-06, No Iterations 1
DILUPBiCG:  Solving for Uy, Initial residual = 8.13114e-06, Final residual = 8.13114e-06, No Iterations 0
DILUPBiCG:  Solving for Uz, Initial residual = 1.29027e-05, Final residual = 3.06893e-06, No Iterations 1
DICPCG:  Solving for p, Initial residual = 0.0194804, Final residual = 0.00186969, No Iterations 48
DICPCG:  Solving for p, Initial residual = 0.0062497, Final residual = 0.000593484, No Iterations 262
DICPCG:  Solving for p, Initial residual = 0.00201796, Final residual = 0.000199616, No Iterations 4
time step continuity errors : sum local = 0.0643784, global = -0.000187617, cumulative = -3.74409e-05
DILUPBiCG:  Solving for epsilon, Initial residual = 0.014802, Final residual = 3.66702e-06, No Iterations 3
DILUPBiCG:  Solving for k, Initial residual = 0.109481, Final residual = 4.27112e-07, No Iterations 5
ExecutionTime = 19.96 s  ClockTime = 20 s

Time = 6

DILUPBiCG:  Solving for Ux, Initial residual = 1.96438e-05, Final residual = 4.58929e-06, No Iterations 1
DILUPBiCG:  Solving for Uy, Initial residual = 1.19077e-05, Final residual = 2.43729e-06, No Iterations 1
DILUPBiCG:  Solving for Uz, Initial residual = 1.50623e-05, Final residual = 4.55817e-06, No Iterations 1
DICPCG:  Solving for p, Initial residual = 0.0228967, Final residual = 0.00219739, No Iterations 290
DICPCG:  Solving for p, Initial residual = 0.00802215, Final residual = 0.000778085, No Iterations 4
DICPCG:  Solving for p, Initial residual = 0.00114803, Final residual = 0.000114288, No Iterations 55
time step continuity errors : sum local = 0.0464099, global = -0.000313413, cumulative = -0.000350854
DILUPBiCG:  Solving for epsilon, Initial residual = 0.0139394, Final residual = 3.66702e-06, No Iterations 3
DILUPBiCG:  Solving for k, Initial residual = 0.0929102, Final residual = 7.12934e-07, No Iterations 5
ExecutionTime = 23.42 s  ClockTime = 23 s

Time = 7

DILUPBiCG:  Solving for Ux, Initial residual = 1.3906e-05, Final residual = 7.51893e-07, No Iterations 2
DILUPBiCG:  Solving for Uy, Initial residual = 3.87965e-06, Final residual = 3.87965e-06, No Iterations 0
DILUPBiCG:  Solving for Uz, Initial residual = 7.52476e-06, Final residual = 7.52476e-06, No Iterations 0
DICPCG:  Solving for p, Initial residual = 0.0804369, Final residual = 0.00785721, No Iterations 292
DICPCG:  Solving for p, Initial residual = 0.00491744, Final residual = 0.00043324, No Iterations 4
DICPCG:  Solving for p, Initial residual = 0.000658935, Final residual = 6.51105e-05, No Iterations 51
time step continuity errors : sum local = 0.028423, global = -0.000128902, cumulative = -0.000479756
DILUPBiCG:  Solving for epsilon, Initial residual = 0.0127526, Final residual = 6.89757e-07, No Iterations 4
DILUPBiCG:  Solving for k, Initial residual = 0.0766095, Final residual = 8.99717e-07, No Iterations 5
ExecutionTime = 26.82 s  ClockTime = 27 s

Time = 8

DILUPBiCG:  Solving for Ux, Initial residual = 1.69977e-05, Final residual = 3.37985e-06, No Iterations 1
DILUPBiCG:  Solving for Uy, Initial residual = 9.97127e-06, Final residual = 9.97127e-06, No Iterations 0
DILUPBiCG:  Solving for Uz, Initial residual = 1.48838e-05, Final residual = 3.43052e-06, No Iterations 1
DICPCG:  Solving for p, Initial residual = 0.0235447, Final residual = 0.00231113, No Iterations 283
DICPCG:  Solving for p, Initial residual = 0.00371202, Final residual = 0.000370001, No Iterations 10
DICPCG:  Solving for p, Initial residual = 0.000595383, Final residual = 5.93002e-05, No Iterations 50
time step continuity errors : sum local = 0.0189907, global = -5.99979e-05, cumulative = -0.000539754
DILUPBiCG:  Solving for epsilon, Initial residual = 0.0126002, Final residual = 6.02936e-07, No Iterations 4
DILUPBiCG:  Solving for k, Initial residual = 0.0649562, Final residual = 3.50837e-07, No Iterations 5
ExecutionTime = 30.27 s  ClockTime = 30 s

Time = 9

DILUPBiCG:  Solving for Ux, Initial residual = 7.15559e-06, Final residual = 7.15559e-06, No Iterations 0
DILUPBiCG:  Solving for Uy, Initial residual = 1.2255e-05, Final residual = 2.52083e-06, No Iterations 1
DILUPBiCG:  Solving for Uz, Initial residual = 7.81864e-06, Final residual = 7.81864e-06, No Iterations 0
DICPCG:  Solving for p, Initial residual = 0.0199596, Final residual = 0.00199176, No Iterations 286
DICPCG:  Solving for p, Initial residual = 0.00719506, Final residual = 0.000719009, No Iterations 9
DICPCG:  Solving for p, Initial residual = 0.00111054, Final residual = 0.000107708, No Iterations 49
time step continuity errors : sum local = 0.0258347, global = 0.000160752, cumulative = -0.000379003
DILUPBiCG:  Solving for epsilon, Initial residual = 0.0135868, Final residual = 7.73818e-07, No Iterations 4
DILUPBiCG:  Solving for k, Initial residual = 0.0577459, Final residual = 3.47454e-07, No Iterations 5
ExecutionTime = 33.7 s  ClockTime = 34 s

Time = 10

DILUPBiCG:  Solving for Ux, Initial residual = 3.72835e-06, Final residual = 3.72835e-06, No Iterations 0
DILUPBiCG:  Solving for Uy, Initial residual = 2.29426e-06, Final residual = 2.29426e-06, No Iterations 0
DILUPBiCG:  Solving for Uz, Initial residual = 4.57243e-06, Final residual = 4.57243e-06, No Iterations 0
DICPCG:  Solving for p, Initial residual = 0.0403962, Final residual = 0.00384171, No Iterations 291
DICPCG:  Solving for p, Initial residual = 0.00495963, Final residual = 0.000469349, No Iterations 4
DICPCG:  Solving for p, Initial residual = 0.000683351, Final residual = 6.58741e-05, No Iterations 49
time step continuity errors : sum local = 0.0185872, global = 0.000172129, cumulative = -0.000206874
DILUPBiCG:  Solving for epsilon, Initial residual = 0.0118539, Final residual = 5.41383e-06, No Iterations 3
DILUPBiCG:  Solving for k, Initial residual = 0.0518105, Final residual = 2.99572e-07, No Iterations 5
ExecutionTime = 37.05 s  ClockTime = 37 s

Time = 11

DILUPBiCG:  Solving for Ux, Initial residual = 4.89986e-06, Final residual = 4.89986e-06, No Iterations 0
DILUPBiCG:  Solving for Uy, Initial residual = 2.48593e-06, Final residual = 2.48593e-06, No Iterations 0
DILUPBiCG:  Solving for Uz, Initial residual = 4.51472e-06, Final residual = 4.51472e-06, No Iterations 0
DICPCG:  Solving for p, Initial residual = 0.0235314, Final residual = 0.00234565, No Iterations 293
DICPCG:  Solving for p, Initial residual = 0.00350635, Final residual = 0.000322011, No Iterations 4
DICPCG:  Solving for p, Initial residual = 0.000476763, Final residual = 4.71846e-05, No Iterations 51
time step continuity errors : sum local = 0.0108103, global = 8.74977e-05, cumulative = -0.000119376
DILUPBiCG:  Solving for epsilon, Initial residual = 0.0106514, Final residual = 3.95461e-06, No Iterations 3
DILUPBiCG:  Solving for k, Initial residual = 0.0478584, Final residual = 1.96197e-07, No Iterations 5
ExecutionTime = 40.45 s  ClockTime = 40 s

Time = 12

DILUPBiCG:  Solving for Ux, Initial residual = 6.51185e-06, Final residual = 6.51185e-06, No Iterations 0
DILUPBiCG:  Solving for Uy, Initial residual = 5.38411e-06, Final residual = 5.38411e-06, No Iterations 0
DILUPBiCG:  Solving for Uz, Initial residual = 5.19307e-06, Final residual = 5.19307e-06, No Iterations 0
DICPCG:  Solving for p, Initial residual = 0.00982927, Final residual = 0.00097191, No Iterations 45
DICPCG:  Solving for p, Initial residual = 0.00228633, Final residual = 0.000218488, No Iterations 267
DICPCG:  Solving for p, Initial residual = 0.000904336, Final residual = 8.4805e-05, No Iterations 16
time step continuity errors : sum local = 0.0104827, global = -6.64625e-05, cumulative = -0.000185838
DILUPBiCG:  Solving for epsilon, Initial residual = 0.0100783, Final residual = 3.34182e-06, No Iterations 3
DILUPBiCG:  Solving for k, Initial residual = 0.0453302, Final residual = 2.05007e-07, No Iterations 5
ExecutionTime = 43.72 s  ClockTime = 44 s

Time = 13

DILUPBiCG:  Solving for Ux, Initial residual = 6.40104e-06, Final residual = 6.40104e-06, No Iterations 0
DILUPBiCG:  Solving for Uy, Initial residual = 6.37748e-06, Final residual = 6.37748e-06, No Iterations 0
DILUPBiCG:  Solving for Uz, Initial residual = 5.30657e-06, Final residual = 5.30657e-06, No Iterations 0
DICPCG:  Solving for p, Initial residual = 0.0108906, Final residual = 0.00103649, No Iterations 282
DICPCG:  Solving for p, Initial residual = 0.0365457, Final residual = 0.00352547, No Iterations 20
DICPCG:  Solving for p, Initial residual = 0.00680852, Final residual = 0.000640991, No Iterations 38
time step continuity errors : sum local = 0.008121, global = -1.33939e-05, cumulative = -0.000199232
DILUPBiCG:  Solving for epsilon, Initial residual = 0.00994846, Final residual = 6.94906e-07, No Iterations 4
DILUPBiCG:  Solving for k, Initial residual = 0.0430494, Final residual = 2.42926e-07, No Iterations 5
ExecutionTime = 47.11 s  ClockTime = 47 s

Time = 14

DILUPBiCG:  Solving for Ux, Initial residual = 4.84066e-06, Final residual = 4.84066e-06, No Iterations 0
DILUPBiCG:  Solving for Uy, Initial residual = 5.19553e-06, Final residual = 5.19553e-06, No Iterations 0
DILUPBiCG:  Solving for Uz, Initial residual = 4.25735e-06, Final residual = 4.25735e-06, No Iterations 0
DICPCG:  Solving for p, Initial residual = 0.014318, Final residual = 0.00134416, No Iterations 290
DICPCG:  Solving for p, Initial residual = 0.00853415, Final residual = 0.000822064, No Iterations 5
DICPCG:  Solving for p, Initial residual = 0.00120856, Final residual = 0.000120756, No Iterations 52
time step continuity errors : sum local = 0.00900285, global = -7.86775e-05, cumulative = -0.00027791
DILUPBiCG:  Solving for epsilon, Initial residual = 0.00998069, Final residual = 9.73892e-06, No Iterations 3
DILUPBiCG:  Solving for k, Initial residual = 0.0406923, Final residual = 3.21993e-07, No Iterations 5
ExecutionTime = 50.54 s  ClockTime = 50 s

Time = 15

DILUPBiCG:  Solving for Ux, Initial residual = 3.07609e-06, Final residual = 3.07609e-06, No Iterations 0
DILUPBiCG:  Solving for Uy, Initial residual = 2.52746e-06, Final residual = 2.52746e-06, No Iterations 0
DILUPBiCG:  Solving for Uz, Initial residual = 2.93536e-06, Final residual = 2.93536e-06, No Iterations 0
DICPCG:  Solving for p, Initial residual = 0.0250013, Final residual = 0.00248176, No Iterations 292
DICPCG:  Solving for p, Initial residual = 0.00537523, Final residual = 0.000509301, No Iterations 4
DICPCG:  Solving for p, Initial residual = 0.000734611, Final residual = 7.11522e-05, No Iterations 51
time step continuity errors : sum local = 0.00792895, global = -8.57023e-05, cumulative = -0.000363612
DILUPBiCG:  Solving for epsilon, Initial residual = 0.00992385, Final residual = 5.00402e-06, No Iterations 3
DILUPBiCG:  Solving for k, Initial residual = 0.0382978, Final residual = 5.66329e-07, No Iterations 5
ExecutionTime = 53.97 s  ClockTime = 54 s

Time = 16

DILUPBiCG:  Solving for Ux, Initial residual = 2.54879e-06, Final residual = 2.54879e-06, No Iterations 0
DILUPBiCG:  Solving for Uy, Initial residual = 7.49652e-07, Final residual = 7.49652e-07, No Iterations 0
DILUPBiCG:  Solving for Uz, Initial residual = 2.46618e-06, Final residual = 2.46618e-06, No Iterations 0
DICPCG:  Solving for p, Initial residual = 0.0605208, Final residual = 0.00588312, No Iterations 293
DICPCG:  Solving for p, Initial residual = 0.0038821, Final residual = 0.000359166, No Iterations 4
DICPCG:  Solving for p, Initial residual = 0.000522405, Final residual = 5.20457e-05, No Iterations 51
time step continuity errors : sum local = 0.00547781, global = -7.73385e-05, cumulative = -0.000440951
DILUPBiCG:  Solving for epsilon, Initial residual = 0.00975293, Final residual = 3.5968e-06, No Iterations 3
DILUPBiCG:  Solving for k, Initial residual = 0.0359326, Final residual = 1.82893e-08, No Iterations 6
ExecutionTime = 57.37 s  ClockTime = 57 s

Time = 17

DILUPBiCG:  Solving for Ux, Initial residual = 2.91595e-06, Final residual = 2.91595e-06, No Iterations 0
DILUPBiCG:  Solving for Uy, Initial residual = 2.21716e-06, Final residual = 2.21716e-06, No Iterations 0
DILUPBiCG:  Solving for Uz, Initial residual = 2.68282e-06, Final residual = 2.68282e-06, No Iterations 0
DICPCG:  Solving for p, Initial residual = 0.0116206, Final residual = 0.00113217, No Iterations 286
DICPCG:  Solving for p, Initial residual = 0.00257447, Final residual = 0.000253862, No Iterations 19
DICPCG:  Solving for p, Initial residual = 0.000479607, Final residual = 4.67343e-05, No Iterations 37
time step continuity errors : sum local = 0.00330565, global = -1.79601e-05, cumulative = -0.000458911
DILUPBiCG:  Solving for epsilon, Initial residual = 0.00951733, Final residual = 3.14314e-06, No Iterations 3
DILUPBiCG:  Solving for k, Initial residual = 0.0337268, Final residual = 3.1701e-07, No Iterations 5
ExecutionTime = 60.71 s  ClockTime = 61 s

Time = 18

DILUPBiCG:  Solving for Ux, Initial residual = 2.83828e-06, Final residual = 2.83828e-06, No Iterations 0
DILUPBiCG:  Solving for Uy, Initial residual = 2.63762e-06, Final residual = 2.63762e-06, No Iterations 0
DILUPBiCG:  Solving for Uz, Initial residual = 2.79678e-06, Final residual = 2.79678e-06, No Iterations 0
DICPCG:  Solving for p, Initial residual = 0.00950902, Final residual = 0.000915873, No Iterations 95
DICPCG:  Solving for p, Initial residual = 0.00257199, Final residual = 0.000255564, No Iterations 267
DICPCG:  Solving for p, Initial residual = 0.00274691, Final residual = 0.00026753, No Iterations 7
time step continuity errors : sum local = 0.00718762, global = 0.000103181, cumulative = -0.00035573
DILUPBiCG:  Solving for epsilon, Initial residual = 0.00927633, Final residual = 3.44898e-06, No Iterations 3
DILUPBiCG:  Solving for k, Initial residual = 0.0317902, Final residual = 3.08682e-07, No Iterations 5
ExecutionTime = 64.3 s  ClockTime = 64 s

Time = 19

DILUPBiCG:  Solving for Ux, Initial residual = 2.34848e-06, Final residual = 2.34848e-06, No Iterations 0
DILUPBiCG:  Solving for Uy, Initial residual = 2.18223e-06, Final residual = 2.18223e-06, No Iterations 0
DILUPBiCG:  Solving for Uz, Initial residual = 2.59349e-06, Final residual = 2.59349e-06, No Iterations 0
DICPCG:  Solving for p, Initial residual = 0.0111877, Final residual = 0.00105898, No Iterations 286
DICPCG:  Solving for p, Initial residual = 0.0152572, Final residual = 0.00145198, No Iterations 13
DICPCG:  Solving for p, Initial residual = 0.00247108, Final residual = 0.000240048, No Iterations 51
time step continuity errors : sum local = 0.00343504, global = 4.69652e-05, cumulative = -0.000308765
DILUPBiCG:  Solving for epsilon, Initial residual = 0.00904903, Final residual = 3.75068e-06, No Iterations 3
DILUPBiCG:  Solving for k, Initial residual = 0.0301827, Final residual = 2.5605e-07, No Iterations 5
ExecutionTime = 67.67 s  ClockTime = 68 s

Time = 20

DILUPBiCG:  Solving for Ux, Initial residual = 1.84814e-06, Final residual = 1.84814e-06, No Iterations 0
DILUPBiCG:  Solving for Uy, Initial residual = 1.3166e-06, Final residual = 1.3166e-06, No Iterations 0
DILUPBiCG:  Solving for Uz, Initial residual = 2.27523e-06, Final residual = 2.27523e-06, No Iterations 0
DICPCG:  Solving for p, Initial residual = 0.0153687, Final residual = 0.00148681, No Iterations 292
DICPCG:  Solving for p, Initial residual = 0.0066184, Final residual = 0.000644985, No Iterations 4
DICPCG:  Solving for p, Initial residual = 0.000922101, Final residual = 9.11393e-05, No Iterations 56
time step continuity errors : sum local = 0.00327563, global = 5.05115e-05, cumulative = -0.000258253
DILUPBiCG:  Solving for epsilon, Initial residual = 0.00883896, Final residual = 4.17283e-06, No Iterations 3
DILUPBiCG:  Solving for k, Initial residual = 0.028877, Final residual = 2.15926e-07, No Iterations 5
ExecutionTime = 71.07 s  ClockTime = 71 s

forces porousforces write:
    sum of forces:
        pressure : (0 0 0)
        viscous  : (0 0 0)
        porous   : (88393.7 -3.35809e-13 58443.9)
    sum of moments:
        pressure : (0 0 0)
        viscous  : (0 0 0)
        porous   : (51294.9 17764.8 -79836.7)

volFieldValue volFieldValue_0 write:
    volIntegrate(cz_solid_0) of U = (1.74219e-09 -4.93883e-09 -4.20688e-09)

surfaceFieldValue massFlowAtFilter_0 write:
    sum(fz_solid_0) of phi = 6.81762e-05

volFieldValue volFieldValue_1 write:
    volIntegrate(cz_solid_1) of U = (3.80733e-10 -4.32246e-09 -3.83011e-09)

surfaceFieldValue massFlowAtFilter_1 write:
    sum(fz_solid_1) of phi = 4.09518e-05

volFieldValue volFieldValue_2 write:
    volIntegrate(cz_solid_2) of U = (-7.03099e-10 -4.25997e-09 -3.21721e-09)

surfaceFieldValue massFlowAtFilter_2 write:
    sum(fz_solid_2) of phi = -6.18045e-05

volFieldValue volFieldValue_3 write:
    volIntegrate(cz_solid_3) of U = (-1.52886e-09 -3.9774e-09 -2.50907e-09)

surfaceFieldValue massFlowAtFilter_3 write:
    sum(fz_solid_3) of phi = -2.0582e-06

volFieldValue volFieldValue_4 write:
    volIntegrate(cz_solid_4) of U = (-2.29083e-09 -3.58834e-09 -1.6501e-09)

surfaceFieldValue massFlowAtFilter_4 write:
    sum(fz_solid_4) of phi = 6.04854e-06

volFieldValue volFieldValue_5 write:
    volIntegrate(cz_solid_5) of U = (-2.8999e-09 -3.5015e-09 -8.32316e-10)

surfaceFieldValue massFlowAtFilter_5 write:
    sum(fz_solid_5) of phi = -9.15938e-05

volFieldValue volFieldValue_6 write:
    volIntegrate(cz_solid_6) of U = (-3.44963e-09 -3.69051e-09 1.88891e-10)

surfaceFieldValue massFlowAtFilter_6 write:
    sum(fz_solid_6) of phi = -5.79963e-05

volFieldValue volFieldValue_7 write:
    volIntegrate(cz_solid_7) of U = (-3.72991e-09 -3.82063e-09 1.4691e-09)

surfaceFieldValue massFlowAtFilter_7 write:
    sum(fz_solid_7) of phi = 2.55003e-05

volFieldValue volFieldValue_8 write:
    volIntegrate(cz_solid_8) of U = (-3.60858e-09 -4.10131e-09 2.86483e-09)

surfaceFieldValue massFlowAtFilter_8 write:
    sum(fz_solid_8) of phi = -1.36797e-05

volFieldValue volFieldValue_9 write:
    volIntegrate(cz_solid_9) of U = (-2.9247e-09 -4.50708e-09 4.38427e-09)

surfaceFieldValue massFlowAtFilter_9 write:
    sum(fz_solid_9) of phi = 6.15823e-06

volFieldValue volFieldValue_10 write:
    volIntegrate(cz_solid_10) of U = (-1.61328e-09 -4.73702e-09 5.68874e-09)

surfaceFieldValue massFlowAtFilter_10 write:
    sum(fz_solid_10) of phi = -6.00327e-05

volFieldValue volFieldValue_11 write:
    volIntegrate(cz_solid_11) of U = (1.02757e-10 -5.00243e-09 6.60108e-09)

surfaceFieldValue massFlowAtFilter_11 write:
    sum(fz_solid_11) of phi = 7.77725e-06

volFieldValue volFieldValue_12 write:
    volIntegrate(cz_solid_12) of U = (2.36743e-09 -5.36422e-09 6.88591e-09)

surfaceFieldValue massFlowAtFilter_12 write:
    sum(fz_solid_12) of phi = 2.15845e-05

volFieldValue volFieldValue_13 write:
    volIntegrate(cz_solid_13) of U = (4.74606e-09 -5.97389e-09 6.31633e-09)

surfaceFieldValue massFlowAtFilter_13 write:
    sum(fz_solid_13) of phi = 9.05523e-05

volFieldValue volFieldValue_14 write:
    volIntegrate(cz_solid_14) of U = (6.73079e-09 -6.47465e-09 4.85961e-09)

surfaceFieldValue massFlowAtFilter_14 write:
    sum(fz_solid_14) of phi = 0.000145214

volFieldValue volFieldValue_15 write:
    volIntegrate(cz_solid_15) of U = (7.89301e-09 -6.84748e-09 2.48061e-09)

surfaceFieldValue massFlowAtFilter_15 write:
    sum(fz_solid_15) of phi = 0.000128859

volFieldValue volFieldValue_16 write:
    volIntegrate(cz_solid_16) of U = (7.80982e-09 -6.65944e-09 -3.86595e-11)

surfaceFieldValue massFlowAtFilter_16 write:
    sum(fz_solid_16) of phi = 5.4687e-05

volFieldValue volFieldValue_17 write:
    volIntegrate(cz_solid_17) of U = (6.72549e-09 -6.41651e-09 -2.14457e-09)

surfaceFieldValue massFlowAtFilter_17 write:
    sum(fz_solid_17) of phi = -2.32327e-05

volFieldValue volFieldValue_18 write:
    volIntegrate(cz_solid_18) of U = (5.14764e-09 -5.7756e-09 -3.5238e-09)

surfaceFieldValue massFlowAtFilter_18 write:
    sum(fz_solid_18) of phi = 9.02721e-05

volFieldValue volFieldValue_19 write:
    volIntegrate(cz_solid_19) of U = (3.36687e-09 -5.25745e-09 -4.11187e-09)

surfaceFieldValue massFlowAtFilter_19 write:
    sum(fz_solid_19) of phi = 1.54435e-05

volFieldValue volFieldValue_20 write:
    volIntegrate(cz_solid_20) of U = (1.48283e-09 -8.55773e-09 -3.17849e-09)

surfaceFieldValue massFlowAtFilter_20 write:
    sum(fz_solid_20) of phi = 2.36713e-05

volFieldValue volFieldValue_21 write:
    volIntegrate(cz_solid_21) of U = (3.76539e-10 -7.77544e-09 -2.91085e-09)

surfaceFieldValue massFlowAtFilter_21 write:
    sum(fz_solid_21) of phi = 2.72172e-05

volFieldValue volFieldValue_22 write:
    volIntegrate(cz_solid_22) of U = (-4.91589e-10 -7.46476e-09 -2.45284e-09)

surfaceFieldValue massFlowAtFilter_22 write:
    sum(fz_solid_22) of phi = -5.18258e-05

volFieldValue volFieldValue_23 write:
    volIntegrate(cz_solid_23) of U = (-1.13865e-09 -7.1912e-09 -1.89114e-09)

surfaceFieldValue massFlowAtFilter_23 write:
    sum(fz_solid_23) of phi = 1.94085e-05

volFieldValue volFieldValue_24 write:
    volIntegrate(cz_solid_24) of U = (-1.72731e-09 -6.64608e-09 -1.20346e-09)

surfaceFieldValue massFlowAtFilter_24 write:
    sum(fz_solid_24) of phi = 9.0014e-06

volFieldValue volFieldValue_25 write:
    volIntegrate(cz_solid_25) of U = (-2.1806e-09 -6.39925e-09 -5.50752e-10)

surfaceFieldValue massFlowAtFilter_25 write:
    sum(fz_solid_25) of phi = 2.69309e-06

volFieldValue volFieldValue_26 write:
    volIntegrate(cz_solid_26) of U = (-2.59852e-09 -6.75102e-09 2.29336e-10)

surfaceFieldValue massFlowAtFilter_26 write:
    sum(fz_solid_26) of phi = 8.45264e-08

volFieldValue volFieldValue_27 write:
    volIntegrate(cz_solid_27) of U = (-2.77835e-09 -6.74985e-09 1.22554e-09)

surfaceFieldValue massFlowAtFilter_27 write:
    sum(fz_solid_27) of phi = 2.99771e-05

volFieldValue volFieldValue_28 write:
    volIntegrate(cz_solid_28) of U = (-2.65111e-09 -7.15353e-09 2.29749e-09)

surfaceFieldValue massFlowAtFilter_28 write:
    sum(fz_solid_28) of phi = 4.18119e-05

volFieldValue volFieldValue_29 write:
    volIntegrate(cz_solid_29) of U = (-2.05236e-09 -7.73106e-09 3.44511e-09)

surfaceFieldValue massFlowAtFilter_29 write:
    sum(fz_solid_29) of phi = 1.74062e-05

volFieldValue volFieldValue_30 write:
    volIntegrate(cz_solid_30) of U = (-1.02022e-09 -8.5949e-09 4.37714e-09)

surfaceFieldValue massFlowAtFilter_30 write:
    sum(fz_solid_30) of phi = -1.20304e-05

volFieldValue volFieldValue_31 write:
    volIntegrate(cz_solid_31) of U = (3.31217e-10 -1.00302e-08 4.9884e-09)

surfaceFieldValue massFlowAtFilter_31 write:
    sum(fz_solid_31) of phi = -2.87053e-05

volFieldValue volFieldValue_32 write:
    volIntegrate(cz_solid_32) of U = (2.02527e-09 -1.10938e-08 5.12828e-09)

surfaceFieldValue massFlowAtFilter_32 write:
    sum(fz_solid_32) of phi = -9.59133e-06

volFieldValue volFieldValue_33 write:
    volIntegrate(cz_solid_33) of U = (3.79099e-09 -1.23872e-08 4.71662e-09)

surfaceFieldValue massFlowAtFilter_33 write:
    sum(fz_solid_33) of phi = 6.82611e-05

volFieldValue volFieldValue_34 write:
    volIntegrate(cz_solid_34) of U = (5.2674e-09 -1.36316e-08 3.76804e-09)

surfaceFieldValue massFlowAtFilter_34 write:
    sum(fz_solid_34) of phi = 4.67742e-05

volFieldValue volFieldValue_35 write:
    volIntegrate(cz_solid_35) of U = (6.20946e-09 -1.38496e-08 2.09987e-09)

surfaceFieldValue massFlowAtFilter_35 write:
    sum(fz_solid_35) of phi = 5.39853e-05

volFieldValue volFieldValue_36 write:
    volIntegrate(cz_solid_36) of U = (6.24677e-09 -1.30357e-08 2.75875e-10)

surfaceFieldValue massFlowAtFilter_36 write:
    sum(fz_solid_36) of phi = 3.68454e-05

volFieldValue volFieldValue_37 write:
    volIntegrate(cz_solid_37) of U = (5.49984e-09 -1.16513e-08 -1.37658e-09)

surfaceFieldValue massFlowAtFilter_37 write:
    sum(fz_solid_37) of phi = 9.97015e-06

volFieldValue volFieldValue_38 write:
    volIntegrate(cz_solid_38) of U = (4.30461e-09 -1.0709e-08 -2.53787e-09)

surfaceFieldValue massFlowAtFilter_38 write:
    sum(fz_solid_38) of phi = -2.29563e-05

volFieldValue volFieldValue_39 write:
    volIntegrate(cz_solid_39) of U = (2.83002e-09 -9.22788e-09 -3.06215e-09)

surfaceFieldValue massFlowAtFilter_39 write:
    sum(fz_solid_39) of phi = 2.85921e-05

volFieldValue volFieldValue_40 write:
    volIntegrate(cz_solid_40) of U = (1.00486e-09 -8.04125e-09 -1.46233e-09)

surfaceFieldValue massFlowAtFilter_40 write:
    sum(fz_solid_40) of phi = 3.1453e-05

volFieldValue volFieldValue_41 write:
    volIntegrate(cz_solid_41) of U = (3.51811e-10 -7.08699e-09 -1.3867e-09)

surfaceFieldValue massFlowAtFilter_41 write:
    sum(fz_solid_41) of phi = 1.39073e-05

volFieldValue volFieldValue_42 write:
    volIntegrate(cz_solid_42) of U = (-1.42176e-10 -6.82507e-09 -1.16544e-09)

surfaceFieldValue massFlowAtFilter_42 write:
    sum(fz_solid_42) of phi = -5.18304e-06

volFieldValue volFieldValue_43 write:
    volIntegrate(cz_solid_43) of U = (-5.1342e-10 -6.42811e-09 -8.52253e-10)

surfaceFieldValue massFlowAtFilter_43 write:
    sum(fz_solid_43) of phi = 1.45337e-05

volFieldValue volFieldValue_44 write:
    volIntegrate(cz_solid_44) of U = (-8.35406e-10 -5.84466e-09 -4.85987e-10)

surfaceFieldValue massFlowAtFilter_44 write:
    sum(fz_solid_44) of phi = 1.52197e-06

volFieldValue volFieldValue_45 write:
    volIntegrate(cz_solid_45) of U = (-1.11329e-09 -5.68772e-09 -1.2532e-10)

surfaceFieldValue massFlowAtFilter_45 write:
    sum(fz_solid_45) of phi = 2.86852e-06

volFieldValue volFieldValue_46 write:
    volIntegrate(cz_solid_46) of U = (-1.38484e-09 -5.82906e-09 3.02863e-10)

surfaceFieldValue massFlowAtFilter_46 write:
    sum(fz_solid_46) of phi = -1.40946e-05

volFieldValue volFieldValue_47 write:
    volIntegrate(cz_solid_47) of U = (-1.50692e-09 -5.81414e-09 9.18156e-10)

surfaceFieldValue massFlowAtFilter_47 write:
    sum(fz_solid_47) of phi = 3.12358e-05

volFieldValue volFieldValue_48 write:
    volIntegrate(cz_solid_48) of U = (-1.40679e-09 -5.9618e-09 1.58697e-09)

surfaceFieldValue massFlowAtFilter_48 write:
    sum(fz_solid_48) of phi = -9.75648e-06

volFieldValue volFieldValue_49 write:
    volIntegrate(cz_solid_49) of U = (-9.81737e-10 -6.33749e-09 2.3028e-09)

surfaceFieldValue massFlowAtFilter_49 write:
    sum(fz_solid_49) of phi = -4.03934e-06

volFieldValue volFieldValue_50 write:
    volIntegrate(cz_solid_50) of U = (-2.45968e-10 -6.9308e-09 2.88605e-09)

surfaceFieldValue massFlowAtFilter_50 write:
    sum(fz_solid_50) of phi = 1.04648e-05

volFieldValue volFieldValue_51 write:
    volIntegrate(cz_solid_51) of U = (6.81121e-10 -7.96662e-09 3.21648e-09)

surfaceFieldValue massFlowAtFilter_51 write:
    sum(fz_solid_51) of phi = -6.87222e-06

volFieldValue volFieldValue_52 write:
    volIntegrate(cz_solid_52) of U = (1.83224e-09 -8.95321e-09 3.27072e-09)

surfaceFieldValue massFlowAtFilter_52 write:
    sum(fz_solid_52) of phi = 2.08417e-06

volFieldValue volFieldValue_53 write:
    volIntegrate(cz_solid_53) of U = (3.05318e-09 -1.0537e-08 3.08387e-09)

surfaceFieldValue massFlowAtFilter_53 write:
    sum(fz_solid_53) of phi = 1.69969e-05

volFieldValue volFieldValue_54 write:
    volIntegrate(cz_solid_54) of U = (4.15263e-09 -1.2942e-08 2.70257e-09)

surfaceFieldValue massFlowAtFilter_54 write:
    sum(fz_solid_54) of phi = 3.85109e-05

volFieldValue volFieldValue_55 write:
    volIntegrate(cz_solid_55) of U = (4.93796e-09 -1.42837e-08 1.85468e-09)

surfaceFieldValue massFlowAtFilter_55 write:
    sum(fz_solid_55) of phi = 2.87132e-05

volFieldValue volFieldValue_56 write:
    volIntegrate(cz_solid_56) of U = (4.8742e-09 -1.43147e-08 9.20957e-10)

surfaceFieldValue massFlowAtFilter_56 write:
    sum(fz_solid_56) of phi = -2.12831e-05

volFieldValue volFieldValue_57 write:
    volIntegrate(cz_solid_57) of U = (4.04455e-09 -1.27862e-08 -4.36489e-11)

surfaceFieldValue massFlowAtFilter_57 write:
    sum(fz_solid_57) of phi = 4.55329e-06

volFieldValue volFieldValue_58 write:
    volIntegrate(cz_solid_58) of U = (2.93114e-09 -1.07957e-08 -9.08306e-10)

surfaceFieldValue massFlowAtFilter_58 write:
    sum(fz_solid_58) of phi = 1.29801e-06

volFieldValue volFieldValue_59 write:
    volIntegrate(cz_solid_59) of U = (1.84514e-09 -8.76892e-09 -1.30453e-09)

surfaceFieldValue massFlowAtFilter_59 write:
    sum(fz_solid_59) of phi = 9.02406e-06

volFieldValue volFieldValue_60 write:
    volIntegrate(cz_solid_60) of U = (1.05166e-10 -5.54201e-09 3.16359e-10)

surfaceFieldValue massFlowAtFilter_60 write:
    sum(fz_solid_60) of phi = -4.99579e-06

volFieldValue volFieldValue_61 write:
    volIntegrate(cz_solid_61) of U = (1.19421e-10 -4.92704e-09 7.48754e-11)

surfaceFieldValue massFlowAtFilter_61 write:
    sum(fz_solid_61) of phi = -9.0621e-06

volFieldValue volFieldValue_62 write:
    volIntegrate(cz_solid_62) of U = (4.24629e-11 -4.67323e-09 -3.11244e-11)

surfaceFieldValue massFlowAtFilter_62 write:
    sum(fz_solid_62) of phi = -1.37838e-05

volFieldValue volFieldValue_63 write:
    volIntegrate(cz_solid_63) of U = (-1.08791e-10 -4.33676e-09 -2.62989e-12)

surfaceFieldValue massFlowAtFilter_63 write:
    sum(fz_solid_63) of phi = -1.68518e-05

volFieldValue volFieldValue_64 write:
    volIntegrate(cz_solid_64) of U = (-2.66612e-10 -3.86015e-09 5.78042e-11)

surfaceFieldValue massFlowAtFilter_64 write:
    sum(fz_solid_64) of phi = -2.0119e-05

volFieldValue volFieldValue_65 write:
    volIntegrate(cz_solid_65) of U = (-4.67251e-10 -3.69651e-09 1.71314e-10)

surfaceFieldValue massFlowAtFilter_65 write:
    sum(fz_solid_65) of phi = -2.32115e-05

volFieldValue volFieldValue_66 write:
    volIntegrate(cz_solid_66) of U = (-6.87885e-10 -3.80738e-09 3.65565e-10)

surfaceFieldValue massFlowAtFilter_66 write:
    sum(fz_solid_66) of phi = -2.02398e-05

volFieldValue volFieldValue_67 write:
    volIntegrate(cz_solid_67) of U = (-7.90352e-10 -3.73962e-09 7.75463e-10)

surfaceFieldValue massFlowAtFilter_67 write:
    sum(fz_solid_67) of phi = -1.30051e-05

volFieldValue volFieldValue_68 write:
    volIntegrate(cz_solid_68) of U = (-7.28958e-10 -3.84144e-09 1.24636e-09)

surfaceFieldValue massFlowAtFilter_68 write:
    sum(fz_solid_68) of phi = -2.60116e-05

volFieldValue volFieldValue_69 write:
    volIntegrate(cz_solid_69) of U = (-3.88448e-10 -4.18314e-09 1.80296e-09)

surfaceFieldValue massFlowAtFilter_69 write:
    sum(fz_solid_69) of phi = -9.13076e-06

volFieldValue volFieldValue_70 write:
    volIntegrate(cz_solid_70) of U = (2.37986e-10 -4.67567e-09 2.28831e-09)

surfaceFieldValue massFlowAtFilter_70 write:
    sum(fz_solid_70) of phi = -2.51346e-05

volFieldValue volFieldValue_71 write:
    volIntegrate(cz_solid_71) of U = (1.05969e-09 -5.57979e-09 2.58509e-09)

surfaceFieldValue massFlowAtFilter_71 write:
    sum(fz_solid_71) of phi = -1.68801e-05

volFieldValue volFieldValue_72 write:
    volIntegrate(cz_solid_72) of U = (2.21428e-09 -6.81439e-09 2.68968e-09)

surfaceFieldValue massFlowAtFilter_72 write:
    sum(fz_solid_72) of phi = -2.98826e-05

volFieldValue volFieldValue_73 write:
    volIntegrate(cz_solid_73) of U = (3.68523e-09 -9.26502e-09 2.61832e-09)

surfaceFieldValue massFlowAtFilter_73 write:
    sum(fz_solid_73) of phi = -4.32959e-06

volFieldValue volFieldValue_74 write:
    volIntegrate(cz_solid_74) of U = (5.37665e-09 -1.35142e-08 2.47491e-09)

surfaceFieldValue massFlowAtFilter_74 write:
    sum(fz_solid_74) of phi = 4.46366e-05

volFieldValue volFieldValue_75 write:
    volIntegrate(cz_solid_75) of U = (7.22696e-09 -1.92306e-08 1.73667e-09)

surfaceFieldValue massFlowAtFilter_75 write:
    sum(fz_solid_75) of phi = 6.58693e-05

volFieldValue volFieldValue_76 write:
    volIntegrate(cz_solid_76) of U = (7.4001e-09 -2.79588e-08 1.27622e-09)

surfaceFieldValue massFlowAtFilter_76 write:
    sum(fz_solid_76) of phi = 4.147e-06

volFieldValue volFieldValue_77 write:
    volIntegrate(cz_solid_77) of U = (3.64792e-09 -2.81965e-08 4.66193e-09)

surfaceFieldValue massFlowAtFilter_77 write:
    sum(fz_solid_77) of phi = 0.000120444

volFieldValue volFieldValue_78 write:
    volIntegrate(cz_solid_78) of U = (-7.44542e-10 -1.15326e-08 1.86925e-09)

surfaceFieldValue massFlowAtFilter_78 write:
    sum(fz_solid_78) of phi = -4.64431e-05

volFieldValue volFieldValue_79 write:
    volIntegrate(cz_solid_79) of U = (-1.75514e-10 -5.82972e-09 6.81888e-10)

surfaceFieldValue massFlowAtFilter_79 write:
    sum(fz_solid_79) of phi = -2.42446e-05

volFieldValue volFieldValue_80 write:
    volIntegrate(cz_solid_80) of U = (-9.12153e-10 -2.72059e-09 1.71098e-09)

surfaceFieldValue massFlowAtFilter_80 write:
    sum(fz_solid_80) of phi = -4.22261e-05

volFieldValue volFieldValue_81 write:
    volIntegrate(cz_solid_81) of U = (-2.39362e-10 -2.39351e-09 1.15172e-09)

surfaceFieldValue massFlowAtFilter_81 write:
    sum(fz_solid_81) of phi = -2.47162e-05

volFieldValue volFieldValue_82 write:
    volIntegrate(cz_solid_82) of U = (2.79588e-11 -2.1484e-09 6.76182e-10)

surfaceFieldValue massFlowAtFilter_82 write:
    sum(fz_solid_82) of phi = -6.4621e-06

volFieldValue volFieldValue_83 write:
    volIntegrate(cz_solid_83) of U = (8.26316e-12 -1.82837e-09 4.636e-10)

surfaceFieldValue massFlowAtFilter_83 write:
    sum(fz_solid_83) of phi = -1.49517e-05

volFieldValue volFieldValue_84 write:
    volIntegrate(cz_solid_84) of U = (-6.57602e-11 -1.48539e-09 3.22786e-10)

surfaceFieldValue massFlowAtFilter_84 write:
    sum(fz_solid_84) of phi = -1.7791e-05

volFieldValue volFieldValue_85 write:
    volIntegrate(cz_solid_85) of U = (-2.41039e-10 -1.33443e-09 3.28965e-10)

surfaceFieldValue massFlowAtFilter_85 write:
    sum(fz_solid_85) of phi = -2.91795e-05

volFieldValue volFieldValue_86 write:
    volIntegrate(cz_solid_86) of U = (-4.19713e-10 -1.35234e-09 4.39513e-10)

surfaceFieldValue massFlowAtFilter_86 write:
    sum(fz_solid_86) of phi = -1.52439e-05

volFieldValue volFieldValue_87 write:
    volIntegrate(cz_solid_87) of U = (-4.85754e-10 -1.33391e-09 7.61479e-10)

surfaceFieldValue massFlowAtFilter_87 write:
    sum(fz_solid_87) of phi = 1.24207e-05

volFieldValue volFieldValue_88 write:
    volIntegrate(cz_solid_88) of U = (-4.06264e-10 -1.4262e-09 1.16429e-09)

surfaceFieldValue massFlowAtFilter_88 write:
    sum(fz_solid_88) of phi = -2.27472e-05

volFieldValue volFieldValue_89 write:
    volIntegrate(cz_solid_89) of U = (-8.48066e-11 -1.63038e-09 1.64702e-09)

surfaceFieldValue massFlowAtFilter_89 write:
    sum(fz_solid_89) of phi = 6.65797e-06

volFieldValue volFieldValue_90 write:
    volIntegrate(cz_solid_90) of U = (5.3836e-10 -1.83462e-09 2.09436e-09)

surfaceFieldValue massFlowAtFilter_90 write:
    sum(fz_solid_90) of phi = -1.57817e-05

volFieldValue volFieldValue_91 write:
    volIntegrate(cz_solid_91) of U = (1.3986e-09 -2.23777e-09 2.37653e-09)

surfaceFieldValue massFlowAtFilter_91 write:
    sum(fz_solid_91) of phi = 1.20588e-06

volFieldValue volFieldValue_92 write:
    volIntegrate(cz_solid_92) of U = (2.76796e-09 -2.92449e-09 2.40834e-09)

surfaceFieldValue massFlowAtFilter_92 write:
    sum(fz_solid_92) of phi = -7.32695e-06

volFieldValue volFieldValue_93 write:
    volIntegrate(cz_solid_93) of U = (4.69409e-09 -4.4575e-09 2.11938e-09)

surfaceFieldValue massFlowAtFilter_93 write:
    sum(fz_solid_93) of phi = 2.29294e-05

volFieldValue volFieldValue_94 write:
    volIntegrate(cz_solid_94) of U = (7.31535e-09 -7.17798e-09 1.66897e-09)

surfaceFieldValue massFlowAtFilter_94 write:
    sum(fz_solid_94) of phi = 0.000133572

volFieldValue volFieldValue_95 write:
[...]
    sum(fz_solid_31) of phi = -1.99124e-05

volFieldValue volFieldValue_32 write:
    volIntegrate(cz_solid_32) of U = (3.6466e-10 -9.28393e-08 8.27615e-10)

surfaceFieldValue massFlowAtFilter_32 write:
    sum(fz_solid_32) of phi = -1.22975e-05

volFieldValue volFieldValue_33 write:
    volIntegrate(cz_solid_33) of U = (5.70259e-10 -6.40124e-08 4.8509e-10)

surfaceFieldValue massFlowAtFilter_33 write:
    sum(fz_solid_33) of phi = 1.21768e-05

volFieldValue volFieldValue_34 write:
    volIntegrate(cz_solid_34) of U = (5.38811e-10 -3.23283e-08 1.17557e-10)

surfaceFieldValue massFlowAtFilter_34 write:
    sum(fz_solid_34) of phi = 6.63106e-06

volFieldValue volFieldValue_35 write:
    volIntegrate(cz_solid_35) of U = (3.64472e-10 -5.28931e-10 -7.42472e-11)

surfaceFieldValue massFlowAtFilter_35 write:
    sum(fz_solid_35) of phi = 2.13592e-06

volFieldValue volFieldValue_36 write:
    volIntegrate(cz_solid_36) of U = (2.68115e-10 1.0405e-08 -1.08792e-10)

surfaceFieldValue massFlowAtFilter_36 write:
    sum(fz_solid_36) of phi = -9.97955e-06

volFieldValue volFieldValue_37 write:
    volIntegrate(cz_solid_37) of U = (1.80372e-10 4.13884e-09 -1.6833e-10)

surfaceFieldValue massFlowAtFilter_37 write:
    sum(fz_solid_37) of phi = 2.54664e-05

volFieldValue volFieldValue_38 write:
    volIntegrate(cz_solid_38) of U = (-7.11985e-11 -8.88817e-09 -2.90776e-11)

surfaceFieldValue massFlowAtFilter_38 write:
    sum(fz_solid_38) of phi = -0.000162998

volFieldValue volFieldValue_39 write:
    volIntegrate(cz_solid_39) of U = (-2.26518e-10 -1.97028e-08 2.81681e-10)

surfaceFieldValue massFlowAtFilter_39 write:
    sum(fz_solid_39) of phi = -0.000110495

volFieldValue volFieldValue_40 write:
    volIntegrate(cz_solid_40) of U = (-3.05395e-10 -8.80995e-09 6.32727e-10)

surfaceFieldValue massFlowAtFilter_40 write:
    sum(fz_solid_40) of phi = -2.50825e-05

volFieldValue volFieldValue_41 write:
    volIntegrate(cz_solid_41) of U = (-3.12804e-10 -2.86764e-08 5.8083e-10)

surfaceFieldValue massFlowAtFilter_41 write:
    sum(fz_solid_41) of phi = 8.96491e-06

volFieldValue volFieldValue_42 write:
    volIntegrate(cz_solid_42) of U = (-7.58994e-10 -6.63541e-08 9.66879e-10)

surfaceFieldValue massFlowAtFilter_42 write:
    sum(fz_solid_42) of phi = 0.000230004

volFieldValue volFieldValue_43 write:
    volIntegrate(cz_solid_43) of U = (-1.42621e-09 -1.23153e-07 2.29762e-09)

surfaceFieldValue massFlowAtFilter_43 write:
    sum(fz_solid_43) of phi = 0.000653621

volFieldValue volFieldValue_44 write:
    volIntegrate(cz_solid_44) of U = (-7.84664e-10 -1.84335e-07 4.5518e-09)

surfaceFieldValue massFlowAtFilter_44 write:
    sum(fz_solid_44) of phi = 0.000305012

volFieldValue volFieldValue_45 write:
    volIntegrate(cz_solid_45) of U = (1.75182e-09 -2.5518e-07 5.42876e-09)

surfaceFieldValue massFlowAtFilter_45 write:
    sum(fz_solid_45) of phi = 0.000163659

volFieldValue volFieldValue_46 write:
    volIntegrate(cz_solid_46) of U = (1.83118e-09 -3.15154e-07 3.59853e-09)

surfaceFieldValue massFlowAtFilter_46 write:
    sum(fz_solid_46) of phi = -0.000613076

volFieldValue volFieldValue_47 write:
    volIntegrate(cz_solid_47) of U = (1.22091e-09 -3.81484e-07 3.39984e-09)

surfaceFieldValue massFlowAtFilter_47 write:
    sum(fz_solid_47) of phi = 0.000364672

volFieldValue volFieldValue_48 write:
    volIntegrate(cz_solid_48) of U = (2.4706e-09 -3.82229e-07 2.45902e-09)

surfaceFieldValue massFlowAtFilter_48 write:
    sum(fz_solid_48) of phi = -0.000231187

volFieldValue volFieldValue_49 write:
    volIntegrate(cz_solid_49) of U = (1.35202e-09 -3.37624e-07 5.46996e-10)

surfaceFieldValue massFlowAtFilter_49 write:
    sum(fz_solid_49) of phi = -0.000100946

volFieldValue volFieldValue_50 write:
    volIntegrate(cz_solid_50) of U = (4.55814e-10 -1.70737e-07 -3.63196e-10)

surfaceFieldValue massFlowAtFilter_50 write:
    sum(fz_solid_50) of phi = -9.74696e-05

volFieldValue volFieldValue_51 write:
    volIntegrate(cz_solid_51) of U = (4.50814e-10 -6.1953e-08 -1.26826e-10)

surfaceFieldValue massFlowAtFilter_51 write:
    sum(fz_solid_51) of phi = -4.08768e-07

volFieldValue volFieldValue_52 write:
    volIntegrate(cz_solid_52) of U = (3.40314e-10 -3.19509e-08 2.45211e-10)

surfaceFieldValue massFlowAtFilter_52 write:
    sum(fz_solid_52) of phi = 2.33629e-05

volFieldValue volFieldValue_53 write:
    volIntegrate(cz_solid_53) of U = (3.39779e-10 6.70173e-10 3.05291e-10)

surfaceFieldValue massFlowAtFilter_53 write:
    sum(fz_solid_53) of phi = 2.97798e-05

volFieldValue volFieldValue_54 write:
    volIntegrate(cz_solid_54) of U = (2.70063e-10 4.03992e-08 1.6934e-10)

surfaceFieldValue massFlowAtFilter_54 write:
    sum(fz_solid_54) of phi = 1.70881e-05

volFieldValue volFieldValue_55 write:
    volIntegrate(cz_solid_55) of U = (1.02778e-10 7.6917e-08 -1.29905e-11)

surfaceFieldValue massFlowAtFilter_55 write:
    sum(fz_solid_55) of phi = 1.80594e-05

volFieldValue volFieldValue_56 write:
    volIntegrate(cz_solid_56) of U = (-8.71008e-11 8.2873e-08 -1.10189e-10)

surfaceFieldValue massFlowAtFilter_56 write:
    sum(fz_solid_56) of phi = 1.78051e-05

volFieldValue volFieldValue_57 write:
    volIntegrate(cz_solid_57) of U = (-2.69989e-10 6.1387e-08 -3.39191e-11)

surfaceFieldValue massFlowAtFilter_57 write:
    sum(fz_solid_57) of phi = 2.62105e-05

volFieldValue volFieldValue_58 write:
    volIntegrate(cz_solid_58) of U = (-3.43214e-10 2.92059e-08 2.53273e-10)

surfaceFieldValue massFlowAtFilter_58 write:
    sum(fz_solid_58) of phi = -9.8537e-05

volFieldValue volFieldValue_59 write:
    volIntegrate(cz_solid_59) of U = (-2.89627e-10 6.69947e-09 5.01583e-10)

surfaceFieldValue massFlowAtFilter_59 write:
    sum(fz_solid_59) of phi = -8.27956e-05

volFieldValue volFieldValue_60 write:
    volIntegrate(cz_solid_60) of U = (-4.66599e-10 2.34285e-08 7.21612e-10)

surfaceFieldValue massFlowAtFilter_60 write:
    sum(fz_solid_60) of phi = -6.95096e-05

volFieldValue volFieldValue_61 write:
    volIntegrate(cz_solid_61) of U = (-4.54839e-10 -2.51407e-09 6.90373e-10)

surfaceFieldValue massFlowAtFilter_61 write:
    sum(fz_solid_61) of phi = 4.58581e-05

volFieldValue volFieldValue_62 write:
    volIntegrate(cz_solid_62) of U = (-9.67386e-10 -3.41679e-08 1.16055e-09)

surfaceFieldValue massFlowAtFilter_62 write:
    sum(fz_solid_62) of phi = -3.09524e-05

volFieldValue volFieldValue_63 write:
    volIntegrate(cz_solid_63) of U = (-1.84326e-09 -8.07082e-08 2.84909e-09)

surfaceFieldValue massFlowAtFilter_63 write:
    sum(fz_solid_63) of phi = 0.000612333

volFieldValue volFieldValue_64 write:
    volIntegrate(cz_solid_64) of U = (-9.59725e-10 -1.29313e-07 6.05882e-09)

surfaceFieldValue massFlowAtFilter_64 write:
    sum(fz_solid_64) of phi = 0.000199815

volFieldValue volFieldValue_65 write:
    volIntegrate(cz_solid_65) of U = (2.57336e-09 -1.72053e-07 7.41511e-09)

surfaceFieldValue massFlowAtFilter_65 write:
    sum(fz_solid_65) of phi = 0.000110171

volFieldValue volFieldValue_66 write:
    volIntegrate(cz_solid_66) of U = (3.06761e-09 -2.17835e-07 5.02052e-09)

surfaceFieldValue massFlowAtFilter_66 write:
    sum(fz_solid_66) of phi = -0.000742372

volFieldValue volFieldValue_67 write:
    volIntegrate(cz_solid_67) of U = (2.44987e-09 -2.51656e-07 4.80776e-09)

surfaceFieldValue massFlowAtFilter_67 write:
    sum(fz_solid_67) of phi = 0.000596234

volFieldValue volFieldValue_68 write:
    volIntegrate(cz_solid_68) of U = (4.74128e-09 -2.54459e-07 3.38669e-09)

surfaceFieldValue massFlowAtFilter_68 write:
    sum(fz_solid_68) of phi = 3.91577e-05

volFieldValue volFieldValue_69 write:
    volIntegrate(cz_solid_69) of U = (3.24794e-09 -2.08147e-07 1.43872e-10)

surfaceFieldValue massFlowAtFilter_69 write:
    sum(fz_solid_69) of phi = -1.98982e-05

volFieldValue volFieldValue_70 write:
    volIntegrate(cz_solid_70) of U = (1.30592e-09 -9.43379e-08 -1.37563e-09)

surfaceFieldValue massFlowAtFilter_70 write:
    sum(fz_solid_70) of phi = -0.000304626

volFieldValue volFieldValue_71 write:
    volIntegrate(cz_solid_71) of U = (6.81564e-10 -2.82312e-08 -1.02349e-09)

surfaceFieldValue massFlowAtFilter_71 write:
    sum(fz_solid_71) of phi = -1.81967e-06

volFieldValue volFieldValue_72 write:
    volIntegrate(cz_solid_72) of U = (-8.19342e-11 3.80958e-08 -6.54001e-10)

surfaceFieldValue massFlowAtFilter_72 write:
    sum(fz_solid_72) of phi = 4.58373e-05

volFieldValue volFieldValue_73 write:
    volIntegrate(cz_solid_73) of U = (-3.99949e-10 1.37381e-07 -5.60522e-10)

surfaceFieldValue massFlowAtFilter_73 write:
    sum(fz_solid_73) of phi = -6.156e-05

volFieldValue volFieldValue_74 write:
    volIntegrate(cz_solid_74) of U = (-5.35655e-10 1.89676e-07 -5.37575e-10)

surfaceFieldValue massFlowAtFilter_74 write:
    sum(fz_solid_74) of phi = 7.14616e-06

volFieldValue volFieldValue_75 write:
    volIntegrate(cz_solid_75) of U = (-6.09822e-10 1.69268e-07 -4.29949e-10)

surfaceFieldValue massFlowAtFilter_75 write:
    sum(fz_solid_75) of phi = -9.62796e-05

volFieldValue volFieldValue_76 write:
    volIntegrate(cz_solid_76) of U = (-6.10737e-10 1.0475e-07 -3.2122e-10)

surfaceFieldValue massFlowAtFilter_76 write:
    sum(fz_solid_76) of phi = 2.42094e-06

volFieldValue volFieldValue_77 write:
    volIntegrate(cz_solid_77) of U = (-5.78704e-10 6.79379e-08 -6.99446e-11)

surfaceFieldValue massFlowAtFilter_77 write:
    sum(fz_solid_77) of phi = 3.49918e-05

volFieldValue volFieldValue_78 write:
    volIntegrate(cz_solid_78) of U = (-5.16531e-10 6.53606e-08 1.60506e-10)

surfaceFieldValue massFlowAtFilter_78 write:
    sum(fz_solid_78) of phi = -0.000252867

volFieldValue volFieldValue_79 write:
    volIntegrate(cz_solid_79) of U = (-5.00066e-10 4.18488e-08 5.02291e-10)

surfaceFieldValue massFlowAtFilter_79 write:
    sum(fz_solid_79) of phi = -5.98683e-05

volFieldValue volFieldValue_80 write:
    volIntegrate(cz_solid_80) of U = (-5.59935e-10 -4.8072e-09 5.07827e-10)

surfaceFieldValue massFlowAtFilter_80 write:
    sum(fz_solid_80) of phi = 9.38849e-06

volFieldValue volFieldValue_81 write:
    volIntegrate(cz_solid_81) of U = (-6.24704e-10 -2.2238e-08 7.03115e-10)

surfaceFieldValue massFlowAtFilter_81 write:
    sum(fz_solid_81) of phi = -9.04816e-06

volFieldValue volFieldValue_82 write:
    volIntegrate(cz_solid_82) of U = (-1.32225e-09 -3.33534e-08 1.26129e-09)

surfaceFieldValue massFlowAtFilter_82 write:
    sum(fz_solid_82) of phi = -2.32953e-05

volFieldValue volFieldValue_83 write:
    volIntegrate(cz_solid_83) of U = (-2.3668e-09 -4.7381e-08 3.18469e-09)

surfaceFieldValue massFlowAtFilter_83 write:
    sum(fz_solid_83) of phi = 0.000513493

volFieldValue volFieldValue_84 write:
    volIntegrate(cz_solid_84) of U = (-1.45318e-09 -5.07084e-08 7.39542e-09)

surfaceFieldValue massFlowAtFilter_84 write:
    sum(fz_solid_84) of phi = 0.000754586

volFieldValue volFieldValue_85 write:
    volIntegrate(cz_solid_85) of U = (2.901e-09 -4.89168e-08 9.2089e-09)

surfaceFieldValue massFlowAtFilter_85 write:
    sum(fz_solid_85) of phi = 4.88563e-05

volFieldValue volFieldValue_86 write:
    volIntegrate(cz_solid_86) of U = (4.2521e-09 -2.54214e-08 6.06828e-09)

surfaceFieldValue massFlowAtFilter_86 write:
    sum(fz_solid_86) of phi = -0.00102129

volFieldValue volFieldValue_87 write:
    volIntegrate(cz_solid_87) of U = (4.0112e-09 -1.45729e-08 5.55433e-09)

surfaceFieldValue massFlowAtFilter_87 write:
    sum(fz_solid_87) of phi = 0.00174736

volFieldValue volFieldValue_88 write:
    volIntegrate(cz_solid_88) of U = (6.9631e-09 -5.35516e-09 3.478e-09)

surfaceFieldValue massFlowAtFilter_88 write:
    sum(fz_solid_88) of phi = -0.000339003

volFieldValue volFieldValue_89 write:
    volIntegrate(cz_solid_89) of U = (5.38247e-09 3.15353e-08 -1.35535e-09)

surfaceFieldValue massFlowAtFilter_89 write:
    sum(fz_solid_89) of phi = -7.67266e-05

volFieldValue volFieldValue_90 write:
    volIntegrate(cz_solid_90) of U = (1.70286e-09 5.55728e-08 -2.57477e-09)

surfaceFieldValue massFlowAtFilter_90 write:
    sum(fz_solid_90) of phi = -0.000229548

volFieldValue volFieldValue_91 write:
    volIntegrate(cz_solid_91) of U = (1.06427e-09 -3.50895e-10 -1.40266e-09)

surfaceFieldValue massFlowAtFilter_91 write:
    sum(fz_solid_91) of phi = 1.90315e-05

volFieldValue volFieldValue_92 write:
    volIntegrate(cz_solid_92) of U = (3.13465e-10 -2.308e-08 -1.93291e-09)

surfaceFieldValue massFlowAtFilter_92 write:
    sum(fz_solid_92) of phi = 0.000178211

volFieldValue volFieldValue_93 write:
    volIntegrate(cz_solid_93) of U = (-6.04429e-10 -2.28994e-08 -3.10246e-09)

surfaceFieldValue massFlowAtFilter_93 write:
    sum(fz_solid_93) of phi = -1.65382e-05

volFieldValue volFieldValue_94 write:
    volIntegrate(cz_solid_94) of U = (-2.33544e-09 1.31559e-08 -3.61971e-09)

surfaceFieldValue massFlowAtFilter_94 write:
    sum(fz_solid_94) of phi = 0.000580075

volFieldValue volFieldValue_95 write:
    volIntegrate(cz_solid_95) of U = (-3.13952e-09 5.34777e-08 -2.21733e-09)

surfaceFieldValue massFlowAtFilter_95 write:
    sum(fz_solid_95) of phi = -4.68749e-05

volFieldValue volFieldValue_96 write:
    volIntegrate(cz_solid_96) of U = (-1.49348e-09 2.34589e-08 -7.02997e-10)

surfaceFieldValue massFlowAtFilter_96 write:
    sum(fz_solid_96) of phi = 0.000193618

volFieldValue volFieldValue_97 write:
    volIntegrate(cz_solid_97) of U = (-4.59143e-10 3.23195e-09 -1.68911e-10)

surfaceFieldValue massFlowAtFilter_97 write:
    sum(fz_solid_97) of phi = 0.000132283

volFieldValue volFieldValue_98 write:
    volIntegrate(cz_solid_98) of U = (-3.603e-10 2.4752e-08 1.40967e-10)

surfaceFieldValue massFlowAtFilter_98 write:
    sum(fz_solid_98) of phi = -9.81821e-05

volFieldValue volFieldValue_99 write:
    volIntegrate(cz_solid_99) of U = (-4.40952e-10 1.68176e-08 3.06987e-10)

surfaceFieldValue massFlowAtFilter_99 write:
    sum(fz_solid_99) of phi = -7.21342e-07

Time = 1081

DILUPBiCG:  Solving for Ux, Initial residual = 1.16183e-07, Final residual = 1.16183e-07, No Iterations 0
DILUPBiCG:  Solving for Uy, Initial residual = 1.36992e-07, Final residual = 1.36992e-07, No Iterations 0
DILUPBiCG:  Solving for Uz, Initial residual = 2.34607e-07, Final residual = 2.34607e-07, No Iterations 0
DICPCG:  Solving for p, Initial residual = 0.00101558, Final residual = 9.4079e-05, No Iterations 12
DICPCG:  Solving for p, Initial residual = 0.000222283, Final residual = 2.05767e-05, No Iterations 29
DICPCG:  Solving for p, Initial residual = 5.05134e-05, Final residual = 9.60434e-06, No Iterations 44
time step continuity errors : sum local = 8.94267e-05, global = 9.47406e-07, cumulative = -0.0065905
DILUPBiCG:  Solving for epsilon, Initial residual = 0.000714911, Final residual = 3.75053e-07, No Iterations 3
DILUPBiCG:  Solving for k, Initial residual = 0.000797589, Final residual = 3.99016e-07, No Iterations 3
ExecutionTime = 2138.06 s  ClockTime = 2220 s

Time = 1082

DILUPBiCG:  Solving for Ux, Initial residual = 1.16012e-07, Final residual = 1.16012e-07, No Iterations 0
DILUPBiCG:  Solving for Uy, Initial residual = 1.3704e-07, Final residual = 1.3704e-07, No Iterations 0
DILUPBiCG:  Solving for Uz, Initial residual = 2.33814e-07, Final residual = 2.33814e-07, No Iterations 0
DICPCG:  Solving for p, Initial residual = 0.00101419, Final residual = 0.000100495, No Iterations 11
DICPCG:  Solving for p, Initial residual = 0.000223921, Final residual = 2.14129e-05, No Iterations 28
DICPCG:  Solving for p, Initial residual = 5.15455e-05, Final residual = 9.60686e-06, No Iterations 58
time step continuity errors : sum local = 8.95012e-05, global = -2.26218e-06, cumulative = -0.00659276
DILUPBiCG:  Solving for epsilon, Initial residual = 0.000714956, Final residual = 3.77014e-07, No Iterations 3
DILUPBiCG:  Solving for k, Initial residual = 0.000797121, Final residual = 3.98741e-07, No Iterations 3
ExecutionTime = 2139.64 s  ClockTime = 2221 s

Time = 1083

DILUPBiCG:  Solving for Ux, Initial residual = 1.15834e-07, Final residual = 1.15834e-07, No Iterations 0
DILUPBiCG:  Solving for Uy, Initial residual = 1.37088e-07, Final residual = 1.37088e-07, No Iterations 0
DILUPBiCG:  Solving for Uz, Initial residual = 2.33055e-07, Final residual = 2.33055e-07, No Iterations 0
DICPCG:  Solving for p, Initial residual = 0.00101353, Final residual = 9.95214e-05, No Iterations 11
DICPCG:  Solving for p, Initial residual = 0.000223188, Final residual = 2.1614e-05, No Iterations 28
DICPCG:  Solving for p, Initial residual = 5.17015e-05, Final residual = 9.93794e-06, No Iterations 41
time step continuity errors : sum local = 9.26437e-05, global = -3.96065e-06, cumulative = -0.00659672
DILUPBiCG:  Solving for epsilon, Initial residual = 0.000715005, Final residual = 3.78876e-07, No Iterations 3
DILUPBiCG:  Solving for k, Initial residual = 0.000796693, Final residual = 3.98419e-07, No Iterations 3
ExecutionTime = 2141.08 s  ClockTime = 2223 s

Time = 1084

DILUPBiCG:  Solving for Ux, Initial residual = 1.15668e-07, Final residual = 1.15668e-07, No Iterations 0
DILUPBiCG:  Solving for Uy, Initial residual = 1.37137e-07, Final residual = 1.37137e-07, No Iterations 0
DILUPBiCG:  Solving for Uz, Initial residual = 2.32277e-07, Final residual = 2.32277e-07, No Iterations 0
DICPCG:  Solving for p, Initial residual = 0.00100767, Final residual = 9.4796e-05, No Iterations 12
DICPCG:  Solving for p, Initial residual = 0.000221397, Final residual = 2.15485e-05, No Iterations 29
DICPCG:  Solving for p, Initial residual = 5.08566e-05, Final residual = 9.80028e-06, No Iterations 61
time step continuity errors : sum local = 9.13908e-05, global = -7.64045e-06, cumulative = -0.00660436
DILUPBiCG:  Solving for epsilon, Initial residual = 0.000715077, Final residual = 3.80761e-07, No Iterations 3
DILUPBiCG:  Solving for k, Initial residual = 0.000796284, Final residual = 3.98054e-07, No Iterations 3
ExecutionTime = 2142.71 s  ClockTime = 2224 s

Time = 1085

DILUPBiCG:  Solving for Ux, Initial residual = 1.15504e-07, Final residual = 1.15504e-07, No Iterations 0
DILUPBiCG:  Solving for Uy, Initial residual = 1.37183e-07, Final residual = 1.37183e-07, No Iterations 0
DILUPBiCG:  Solving for Uz, Initial residual = 2.31548e-07, Final residual = 2.31548e-07, No Iterations 0
DICPCG:  Solving for p, Initial residual = 0.00100067, Final residual = 9.59407e-05, No Iterations 12
DICPCG:  Solving for p, Initial residual = 0.000221363, Final residual = 2.07056e-05, No Iterations 30
DICPCG:  Solving for p, Initial residual = 5.06026e-05, Final residual = 9.71025e-06, No Iterations 45
time step continuity errors : sum local = 9.05765e-05, global = -9.50849e-06, cumulative = -0.00661387
DILUPBiCG:  Solving for epsilon, Initial residual = 0.000715151, Final residual = 3.82473e-07, No Iterations 3
DILUPBiCG:  Solving for k, Initial residual = 0.000795896, Final residual = 3.97628e-07, No Iterations 3
ExecutionTime = 2144.21 s  ClockTime = 2226 s

Time = 1086

DILUPBiCG:  Solving for Ux, Initial residual = 1.15354e-07, Final residual = 1.15354e-07, No Iterations 0
DILUPBiCG:  Solving for Uy, Initial residual = 1.37231e-07, Final residual = 1.37231e-07, No Iterations 0
DILUPBiCG:  Solving for Uz, Initial residual = 2.30806e-07, Final residual = 2.30806e-07, No Iterations 0
DICPCG:  Solving for p, Initial residual = 0.00099861, Final residual = 9.67509e-05, No Iterations 12
DICPCG:  Solving for p, Initial residual = 0.000221151, Final residual = 2.10309e-05, No Iterations 30
DICPCG:  Solving for p, Initial residual = 5.07453e-05, Final residual = 9.4997e-06, No Iterations 75
time step continuity errors : sum local = 8.86399e-05, global = -1.24785e-05, cumulative = -0.00662635
DILUPBiCG:  Solving for epsilon, Initial residual = 0.00071527, Final residual = 3.83326e-07, No Iterations 3
DILUPBiCG:  Solving for k, Initial residual = 0.000795502, Final residual = 3.97147e-07, No Iterations 3
ExecutionTime = 2145.91 s  ClockTime = 2227 s


SIMPLE solution converged in 1086 iterations

End

Finalising parallel run
